#------------------------------------------------------------------------------
#$Date: 2016-11-06 04:34:14 +0200 (Sun, 06 Nov 2016) $
#$Revision: 187986 $
#$URL: svn://crystallography.net/cod/cif/2/02/06/2020660.cif $
#------------------------------------------------------------------------------
#
# This file is available in the Crystallography Open Database (COD),
# http://www.crystallography.net/. The original data for this entry
# were provided by IUCr Journals, http://journals.iucr.org/.
#
# The file may be used within the scientific community so long as
# proper attribution is given to the journal article from which the
# data were obtained.
#
data_2020660
loop_
_publ_author_name
'Cai, Xiao-Qing'
'Tian, Bei'
'Zhang, Jian-Nan'
'Jin, Zhi-Min'
_publ_section_title
;
 The hydrogen-bonded complex bis(<i>tert</i>-butylammonium)
 2,6-dichlorophenolate 2,4-dichlorophenol--2,4-dichlorophenolate
 tetrahydrofuran disolvate containing a chiral <i>R</i>~5~^3^(10)
 hydrogen-bonded ring as a supramolecular synthon
;
_journal_coeditor_code           KY3103
_journal_issue                   10
_journal_name_full               'Acta Crystallographica Section C'
_journal_page_first              720
_journal_page_last               723
_journal_paper_doi               10.1107/S2053229616013577
_journal_volume                  72
_journal_year                    2016
_chemical_formula_iupac
'2C4 H12 N+, C6 H3 Cl2 O -, C6 H3 Cl2 O -, C6 H4 Cl2 O, 2C4 H8 O'
_chemical_formula_moiety
'2(C4 H12 N+), C6 H3 Cl2 O -, C6 H3 Cl2 O -, C6 H4 Cl2 O, 2C4 H8 O'
_chemical_formula_sum            'C34 H50 Cl6 N2 O5'
_chemical_formula_weight         779.46
_chemical_name_systematic
;
Bis(<i>tert</i>-butylammonium) 2,6-dichlorophenolate 2,4-dichlorophenolate
2,4-dichlorophenol tetrahydrofuran disolvate
;
_space_group_crystal_system      monoclinic
_space_group_IT_number           15
_space_group_name_Hall           '-I 2ya'
_space_group_name_H-M_alt        'I 1 2/a 1'
_symmetry_space_group_name_Hall  '-I 2ya'
_symmetry_space_group_name_H-M   'I 1 2/a 1'
_atom_sites_solution_hydrogens   geom
_atom_sites_solution_primary     direct
_atom_sites_solution_secondary   difmap
_audit_creation_method           SHELXL-97
_cell_angle_alpha                90.00
_cell_angle_beta                 105.191(3)
_cell_angle_gamma                90.00
_cell_formula_units_Z            4
_cell_length_a                   14.8441(12)
_cell_length_b                   13.2872(11)
_cell_length_c                   21.0311(15)
_cell_measurement_reflns_used    2879
_cell_measurement_temperature    293(2)
_cell_measurement_theta_max      23.12
_cell_measurement_theta_min      2.11
_cell_volume                     4003.2(5)
_computing_cell_refinement
;
SMART (Bruker, 2000)
;
_computing_data_collection
;
SMART (Bruker, 2000)
;
_computing_data_reduction
;
SAINT (Bruker, 2000)
;
_computing_molecular_graphics
;
SHELXTL (Bruker, 2000)
;
_computing_publication_material
;
SHELXTL (Bruker, 2000)
;
_computing_structure_refinement
;
SHELXTL (Bruker, 2000)
;
_computing_structure_solution
;
SHELXTL (Bruker, 2000)
;
_diffrn_ambient_temperature      293(2)
_diffrn_measured_fraction_theta_full 0.998
_diffrn_measured_fraction_theta_max 0.998
_diffrn_measurement_device_type  'Bruker SMART CCD area detector'
_diffrn_measurement_method       '\f and \w scans'
_diffrn_radiation_monochromator  graphite
_diffrn_radiation_source         'fine-focus sealed tube'
_diffrn_radiation_type           MoK\a
_diffrn_radiation_wavelength     0.71073
_diffrn_reflns_av_R_equivalents  0.0139
_diffrn_reflns_av_sigmaI/netI    0.0721
_diffrn_reflns_limit_h_max       18
_diffrn_reflns_limit_h_min       -9
_diffrn_reflns_limit_k_max       16
_diffrn_reflns_limit_k_min       -16
_diffrn_reflns_limit_l_max       21
_diffrn_reflns_limit_l_min       -25
_diffrn_reflns_number            10530
_diffrn_reflns_theta_full        26.00
_diffrn_reflns_theta_max         26.00
_diffrn_reflns_theta_min         1.83
_exptl_absorpt_coefficient_mu    0.469
_exptl_absorpt_correction_T_max  0.935
_exptl_absorpt_correction_T_min  0.892
_exptl_absorpt_correction_type   multi-scan
_exptl_absorpt_process_details
;
(SADABS; Bruker, 2000)
;
_exptl_crystal_colour            colorless
_exptl_crystal_density_diffrn    1.293
_exptl_crystal_density_method    'not measured'
_exptl_crystal_description       prism
_exptl_crystal_F_000             1640
_exptl_crystal_size_max          0.26
_exptl_crystal_size_mid          0.22
_exptl_crystal_size_min          0.20
_refine_diff_density_max         0.318
_refine_diff_density_min         -0.316
_refine_ls_extinction_method     none
_refine_ls_goodness_of_fit_ref   0.934
_refine_ls_hydrogen_treatment    mixed
_refine_ls_matrix_type           full
_refine_ls_number_parameters     221
_refine_ls_number_reflns         3934
_refine_ls_number_restraints     1
_refine_ls_restrained_S_all      0.934
_refine_ls_R_factor_all          0.0735
_refine_ls_R_factor_gt           0.0601
_refine_ls_shift/su_max          0.000
_refine_ls_shift/su_mean         0.000
_refine_ls_structure_factor_coef Fsqd
_refine_ls_weighting_details
'calc w=1/[\s^2^(Fo^2^)+(0.0964P)^2^+0.0000P] where P=(Fo^2^+2Fc^2^)/3'
_refine_ls_weighting_scheme      calc
_refine_ls_wR_factor_gt          0.1577
_refine_ls_wR_factor_ref         0.1611
_reflns_number_gt                2350
_reflns_number_total             3934
_reflns_threshold_expression     >2sigma(I)
_cod_data_source_file            ky3103sup1.cif
_cod_data_source_block           I
_cod_database_code               2020660
_shelx_hkl_file
;
#
# h,k,l, Fc-squared, Fo-squared, sigma(Fo-squared) and status flag
#
data_I
_shelx_title ' 1zjzm6            I2/a'
_shelx_refln_list_code          4
_shelx_F_calc_maximum      388.09
_exptl_crystal_F_000      1640.00
_reflns_d_resolution_high  0.8107
loop_
 _symmetry_equiv_pos_as_xyz
 'x, y, z'
 '-x+1/2, y, -z'
 'x+1/2, y+1/2, z+1/2'
 '-x+1, y+1/2, -z+1/2'
 '-x, -y, -z'
 'x-1/2, -y, z'
 '-x+1/2, -y+1/2, -z+1/2'
 'x, -y+1/2, z+1/2'
_cell_length_a    14.8441
_cell_length_b    13.2872
_cell_length_c    21.0311
_cell_angle_alpha  90.000
_cell_angle_beta  105.191
_cell_angle_gamma  90.000
_shelx_F_squared_multiplier     1.000
loop_
 _refln_index_h
 _refln_index_k
 _refln_index_l
 _refln_F_squared_calc
 _refln_F_squared_meas
 _refln_F_squared_sigma
 _refln_observed_status
   4   0   0    14633.91    12504.17   1233.56 o
   6   0   0    27999.36    26985.78   2129.95 o
   8   0   0    26188.11    23095.19   1455.61 o
  10   0   0      610.97      772.80     89.11 o
  12   0   0      150.97      171.80     49.38 o
  14   0   0      505.70      422.48     87.94 o
  16   0   0      433.02      382.16     43.12 o
   1   1   0       26.51       30.78      9.78 o
   3   1   0    25522.81    23347.54   1338.73 o
   5   1   0    10264.82    11792.99    515.77 o
   7   1   0      458.08      397.65     23.14 o
   9   1   0     2153.47     2166.76    113.11 o
  11   1   0      244.42      214.46     39.04 o
  13   1   0      100.21      111.03     27.78 o
  15   1   0        1.82        0.85     25.59 o
  17   1   0       74.30       99.05     28.81 o
   0   2   0     7095.64     8903.42    584.06 o
   2   2   0   106114.51   108124.76   5337.04 o
   4   2   0    62832.20    53351.86   2001.31 o
   6   2   0     8235.82     6920.19    432.63 o
   8   2   0       45.69       78.79     20.29 o
  10   2   0      923.06      983.75    108.45 o
  12   2   0     3255.79     3111.46    113.89 o
  14   2   0      250.74      253.90     29.40 o
  16   2   0       59.88       64.69     29.73 o
   1   3   0      107.86      108.98     12.22 o
   3   3   0     2066.04     2119.43     57.94 o
   5   3   0     1408.98     1450.23     41.17 o
   7   3   0     3876.07     3665.76    127.47 o
   9   3   0       43.80      104.71     27.95 o
  11   3   0      488.71      467.19     34.94 o
  13   3   0       47.91       55.03     22.11 o
  15   3   0      253.11      247.47     41.12 o
  17   3   0       12.57       20.50     31.81 o
   0   4   0     9802.08     8410.56    491.21 o
   2   4   0     7582.84     8199.54    227.67 o
   4   4   0     1722.82     1603.15     98.27 o
   6   4   0     9456.63     9562.39    321.64 o
   8   4   0        5.29        6.30     12.38 o
  10   4   0      232.41      243.67     19.23 o
  12   4   0      104.55      100.89     27.15 o
  14   4   0       66.36       86.19     30.32 o
  16   4   0        0.49        1.81     28.84 o
   1   5   0    27163.86    25174.62    822.45 o
   3   5   0     2272.17     4624.83    318.06 o
   5   5   0     3265.08     3155.54     99.53 o
   7   5   0     3454.62     3048.64     95.90 o
   9   5   0      144.41      168.28     15.56 o
  11   5   0      583.60      825.39     73.82 o
  13   5   0       28.94       26.68     24.71 o
  15   5   0        0.45        0.74     37.03 o
   0   6   0      111.66      114.82     22.58 o
   2   6   0     1293.96     1121.32     32.05 o
   4   6   0      784.40      796.12     66.08 o
   6   6   0     1347.00     1192.62     49.59 o
   8   6   0       10.02        5.73     13.03 o
  10   6   0      564.30      498.38     39.73 o
  12   6   0      238.31      403.60     65.30 o
  14   6   0        0.49       -0.58     37.72 o
  16   6   0       30.24       25.42     44.36 o
   1   7   0     1475.84     1475.94     51.13 o
   3   7   0     1672.08     1965.55     48.76 o
   5   7   0     2743.91     2940.46     41.91 o
   7   7   0     1197.01     1294.40     49.05 o
   9   7   0     1208.53     1342.04     94.54 o
  11   7   0      438.46      416.93     54.44 o
  13   7   0       88.09       83.56     42.70 o
  15   7   0       45.36       48.92     56.56 o
   0   8   0     1970.15     1864.95     43.24 o
   2   8   0       10.23       11.08     15.33 o
   4   8   0     1283.58     1159.56     82.05 o
   6   8   0       62.23       37.64     19.39 o
   8   8   0       22.54       58.27     33.83 o
  10   8   0        0.91       19.58     49.28 o
  12   8   0      342.58      352.73     45.62 o
  14   8   0        1.60       10.34     46.63 o
   1   9   0     2730.11     2611.22     63.46 o
   3   9   0      482.50      731.60     59.28 o
   5   9   0       60.57       61.70     22.26 o
   7   9   0     2243.45     1996.11     80.00 o
   9   9   0      560.06      515.98     37.76 o
  11   9   0       28.43       46.21     40.60 o
  13   9   0       13.71       15.02     47.73 o
   0  10   0      317.78      385.96     65.36 o
   2  10   0      750.35      700.17     30.87 o
   4  10   0      404.51      442.89     32.26 o
   6  10   0      363.65      366.31     25.92 o
   8  10   0        0.01        3.94     23.58 o
  10  10   0      553.15      701.22     75.88 o
  12  10   0       82.62       82.04     43.87 o
  14  10   0      119.53      107.23     49.95 o
   1  11   0      691.11      932.12     57.43 o
   3  11   0       46.01       59.03     38.00 o
   5  11   0      802.87      702.39     84.95 o
   7  11   0        9.38       10.69     33.89 o
   9  11   0      476.99      448.90     46.90 o
  11  11   0      345.30      312.20     65.50 o
  13  11   0      100.86      100.80     56.72 o
   0  12   0     3546.37     3750.45     78.94 o
   2  12   0      450.09      440.32     37.28 o
   4  12   0      198.98      170.92     66.33 o
   6  12   0      304.61      358.50     34.70 o
   8  12   0       77.39      121.77     50.78 o
  10  12   0        0.07       21.91     75.67 o
  12  12   0      112.64      112.60     56.49 o
   1  13   0       90.65      100.34     38.63 o
   3  13   0       52.03       49.59     46.70 o
   5  13   0      249.60      263.32     45.47 o
   7  13   0      163.52      148.91     39.99 o
   9  13   0       57.65       47.67     59.67 o
   0  14   0       28.41       30.39     87.07 o
   2  14   0        6.24        1.46     47.14 o
   4  14   0        0.62       16.76     47.71 o
   6  14   0       40.80       35.66     42.36 o
   8  14   0        1.88        6.43     59.81 o
   1  15   0      141.76      123.10     75.27 o
   3  15   0      135.55      144.52     42.82 o
   5  15   0       83.39       86.29     44.85 o
   7  15   0       59.26       62.83     49.78 o
   0  16   0      281.53      221.47    127.10 o
   2  16   0        3.54       13.15     77.53 o
 -16   1   1      456.57      446.73     40.27 o
 -14   1   1      461.07      407.87     51.08 o
 -12   1   1      965.61      934.50     33.97 o
 -10   1   1     5481.82     6891.30    277.46 o
  -8   1   1    38234.45    33855.40   1708.15 o
  -6   1   1    11108.98    11764.83    514.64 o
  -4   1   1    49690.14    75007.20   9852.12 o
  -2   1   1       28.98       24.54     16.49 o
   0   1   1      438.99      631.68     32.74 o
   2   1   1     4102.74     3553.13    314.38 o
   4   1   1    26211.62    22859.52   1217.01 o
   6   1   1      321.74      298.60     24.17 o
   8   1   1      462.75      422.98     50.89 o
  10   1   1     1415.35     1366.81     82.33 o
  12   1   1      167.78      207.93     69.74 o
  14   1   1      277.23      272.50     32.63 o
  16   1   1       12.69       47.92     30.03 o
 -17   2   1       10.38        7.75     29.94 o
 -15   2   1        0.65        0.58     25.19 o
 -13   2   1        5.96       10.66     24.37 o
 -11   2   1      416.65      408.17     21.90 o
  -9   2   1     1775.93     1794.53     89.75 o
  -7   2   1     6163.73     8428.62    397.07 o
  -5   2   1      485.28      675.94     43.18 o
  -3   2   1    30508.20    27423.95   1902.94 o
  -1   2   1       17.80       49.96     20.16 o
   1   2   1     2369.88     2150.99    128.92 o
   3   2   1    28554.69    24654.15   1534.77 o
   5   2   1     2070.14     2052.95     66.21 o
   7   2   1      200.26      196.05     18.95 o
   9   2   1      531.83      522.12     24.62 o
  11   2   1        8.69       63.69     23.57 o
  13   2   1       97.26       76.84     29.31 o
  15   2   1       18.10       41.51     29.53 o
  17   2   1        5.04        3.82     31.16 o
 -16   3   1       39.04       49.20     31.53 o
 -14   3   1        1.71        3.24     24.46 o
 -12   3   1        0.42       35.65     32.35 o
 -10   3   1     3309.87     2975.50     91.57 o
  -8   3   1     2369.40     2526.43     47.99 o
  -6   3   1      718.37     1026.12     67.45 o
  -4   3   1       88.57       88.02     18.30 o
  -2   3   1    67894.55    70232.02   2483.96 o
   0   3   1    11204.18    13611.42    707.43 o
   2   3   1    78100.94    69584.66   3795.29 o
   4   3   1       20.24       10.10      7.42 o
   6   3   1      719.71      700.05     18.41 o
   8   3   1     1706.62     1516.38     79.70 o
  10   3   1        0.06       10.23     25.10 o
  12   3   1      414.71      364.05     38.87 o
  14   3   1       61.51       57.19     24.55 o
  16   3   1        2.80        7.69     30.94 o
 -17   4   1       96.78       92.62     38.76 o
 -15   4   1      620.87      547.03     44.93 o
 -13   4   1       68.12       77.13     23.85 o
 -11   4   1       74.33       81.78     19.29 o
  -9   4   1     1053.88      951.97     32.22 o
  -7   4   1    11819.53    12228.52    597.30 o
  -5   4   1     2013.43     1676.12    146.67 o
  -3   4   1    12168.89    14804.24    415.25 o
  -1   4   1     3552.55     3375.85    137.15 o
   1   4   1        3.39      155.78     33.88 o
   3   4   1     8073.58     9839.70    240.06 o
   5   4   1     1432.93     1213.84     22.33 o
   7   4   1     4765.63     4439.37    152.85 o
   9   4   1      942.10     1118.73     43.62 o
  11   4   1     2413.97     2165.10    128.82 o
  13   4   1       13.24        7.60     22.54 o
  15   4   1      163.62      183.59     29.49 o
 -16   5   1       12.28        9.35     37.10 o
 -14   5   1      352.66      370.20     35.19 o
 -12   5   1      704.14      834.45     48.36 o
 -10   5   1       98.58      111.32     32.13 o
  -8   5   1     1028.88      964.35     49.34 o
  -6   5   1     3454.00     2995.22     56.85 o
  -4   5   1       11.53       17.82     21.39 o
  -2   5   1       95.95       87.94     14.50 o
   0   5   1      516.54      668.49     46.45 o
   2   5   1    19345.34    17593.04    563.81 o
   4   5   1     4343.59     4205.50    299.57 o
   6   5   1     2116.95     1754.57    102.11 o
   8   5   1        0.09        1.21     11.17 o
  10   5   1     1329.38     1109.68     71.16 o
  12   5   1       71.61       52.55     24.04 o
  14   5   1      213.50      212.16     40.80 o
  16   5   1       10.30       23.00     45.54 o
 -15   6   1      311.30      296.26     54.71 o
 -13   6   1       66.67       85.31     32.22 o
 -11   6   1      564.93      563.71     35.80 o
  -9   6   1     5537.32     5084.04    135.95 o
  -7   6   1      559.47      508.40     56.69 o
  -5   6   1       97.35      394.42     42.93 o
  -3   6   1    10011.05    12707.61    298.15 o
  -1   6   1     2723.75     2732.00     57.13 o
   1   6   1     1276.06     1271.06     73.39 o
   3   6   1       26.16       37.11     19.69 o
   5   6   1     4546.39     3939.86    157.80 o
   7   6   1       22.23       22.79     21.38 o
   9   6   1      332.52      328.85     27.83 o
  11   6   1       90.09      101.09     44.49 o
  13   6   1       67.02      101.97     42.70 o
  15   6   1        1.34       -0.58     42.34 o
 -16   7   1       82.70       81.59     46.64 o
 -14   7   1        8.10       11.69     35.50 o
 -12   7   1      274.47      278.44     47.10 o
 -10   7   1       24.21       38.11     38.26 o
  -8   7   1      231.10      217.28     19.43 o
  -6   7   1        0.35       13.15     30.41 o
  -4   7   1      598.09      527.37     28.79 o
  -2   7   1     1508.15     1559.27     58.87 o
   0   7   1     3039.07     4606.72    728.81 o
   2   7   1      658.65      616.49     17.69 o
   4   7   1     1609.18     1512.44     80.91 o
   6   7   1      194.63      165.66     27.79 o
   8   7   1     1284.92     1291.51     74.47 o
  10   7   1      175.43      186.70     39.52 o
  12   7   1       13.19        8.08     39.45 o
  14   7   1      135.45      116.52     44.50 o
 -15   8   1      156.16      163.03     53.33 o
 -13   8   1      134.21      140.00     39.06 o
 -11   8   1       63.17       56.97     54.15 o
  -9   8   1      803.49      763.74     38.05 o
  -7   8   1      751.13      744.08     39.78 o
  -5   8   1      518.25      556.80     19.28 o
  -3   8   1      277.20      288.38     15.46 o
  -1   8   1     2831.48     2671.05     47.73 o
   1   8   1      398.69      410.84     37.32 o
   3   8   1     3586.52     3279.28    140.75 o
   5   8   1       29.77       29.51     22.14 o
   7   8   1      923.65     1076.08     69.90 o
   9   8   1        0.72       -0.58     24.71 o
  11   8   1      306.37      257.28     56.32 o
  13   8   1      188.07      189.82     50.26 o
  15   8   1       38.36       32.97     50.97 o
 -14   9   1        0.47       -0.45     44.19 o
 -12   9   1       15.14       17.53     37.59 o
 -10   9   1      894.31      779.98     58.82 o
  -8   9   1      487.72      499.03     30.93 o
  -6   9   1        9.49       10.10     23.78 o
  -4   9   1      181.89      180.81     19.27 o
  -2   9   1     2846.38     2723.47    108.49 o
   0   9   1      212.07      201.81     36.49 o
   2   9   1      982.32     1081.92     53.37 o
   4   9   1      335.61      330.55     30.53 o
   6   9   1      953.25     1146.49     43.43 o
   8   9   1      124.46      137.62     25.04 o
  10   9   1        3.21        8.77     40.87 o
  12   9   1        1.72       23.15     43.80 o
  14   9   1       67.88       56.28     49.33 o
 -13  10   1        7.56        5.26     41.05 o
 -11  10   1        7.04       32.43     43.17 o
  -9  10   1        5.80        7.52     30.87 o
  -7  10   1      135.93      163.31     24.65 o
  -5  10   1        0.35       19.07     34.72 o
  -3  10   1      593.31      899.60     73.94 o
  -1  10   1      673.15      725.00     66.35 o
   1  10   1      107.37      130.10     37.19 o
   3  10   1     1096.59     1053.77     50.40 o
   5  10   1      583.69      543.66     30.92 o
   7  10   1        8.72        9.53     26.20 o
   9  10   1      153.28      133.23     52.66 o
  11  10   1       71.19       76.37     42.23 o
  13  10   1      236.08      188.45     65.60 o
 -12  11   1       24.22       57.40     49.78 o
 -10  11   1      976.67      896.39     61.10 o
  -8  11   1     1050.96     1212.62     67.69 o
  -6  11   1       91.16      111.66     33.56 o
  -4  11   1     1337.76     1283.60     41.81 o
  -2  11   1     1165.51     1053.77     42.20 o
   0  11   1      271.69      284.66     24.04 o
   2  11   1      163.01      172.97     33.34 o
   4  11   1     3308.18     2841.34    159.82 o
   6  11   1      198.46      168.58     43.10 o
   8  11   1      178.63      189.87     36.24 o
  10  11   1        8.84        9.21     50.74 o
  12  11   1        4.65        1.27     53.84 o
 -11  12   1       25.17       49.67     76.26 o
  -9  12   1        0.21        0.88     49.27 o
  -7  12   1       97.47       88.94     38.04 o
  -5  12   1      118.29       94.37     41.53 o
  -3  12   1        1.69       31.38     41.29 o
  -1  12   1       60.48       88.37     39.70 o
   1  12   1       33.27       36.20     40.10 o
   3  12   1      122.54      132.82     36.46 o
   5  12   1      597.63      566.23     57.26 o
   7  12   1        5.06        3.51     36.23 o
   9  12   1       22.99       21.62     50.08 o
  11  12   1      312.08      261.93     61.86 o
 -10  13   1       22.57       28.93     69.83 o
  -8  13   1      540.51      519.78     63.27 o
  -6  13   1      849.65      850.81     46.11 o
  -4  13   1      262.64      266.91     42.05 o
  -2  13   1      203.73      214.46     47.84 o
   0  13   1      294.80      294.07     58.16 o
   2  13   1     1585.57     1783.01     66.88 o
   4  13   1      823.95      822.54     72.59 o
   6  13   1       30.13       23.67     43.59 o
   8  13   1        0.72       -0.45     55.40 o
  10  13   1      179.49      156.61     98.46 o
  -9  14   1      121.94      103.31     57.24 o
  -7  14   1      105.36      107.30     47.20 o
  -5  14   1       47.95       42.76     39.79 o
  -3  14   1      265.83      266.17     51.93 o
  -1  14   1      113.45       91.45     64.34 o
   1  14   1      167.87      119.03     52.35 o
   3  14   1      501.65      455.50     71.77 o
   5  14   1        1.67       -0.58     40.97 o
   7  14   1        7.62       14.64     43.82 o
  -6  15   1        1.25        0.68     49.23 o
  -4  15   1       44.56       42.55     43.96 o
  -2  15   1      981.80     1332.02    130.60 o
   0  15   1       45.41       50.55     74.32 o
   2  15   1        4.14        8.22     43.79 o
   4  15   1       50.79       52.07     44.02 o
   6  15   1       56.41       44.41     42.72 o
  -3  16   1       33.16       49.12     72.08 o
  -1  16   1       19.13       28.05     79.13 o
   1  16   1        5.66       19.51     76.91 o
   3  16   1        0.05       15.05     49.98 o
 -16   0   2      132.07      166.54     57.56 o
 -14   0   2     1109.39     1180.68     79.47 o
 -12   0   2     3651.76     3466.94    161.86 o
 -10   0   2      855.11      851.40     54.64 o
  -8   0   2     2429.93     2355.51    215.33 o
  -6   0   2    11421.59    13591.64   1028.74 o
  -4   0   2   150610.31   153560.25  11902.29 o
  -2   0   2     1034.16     1121.95    117.45 o
   0   0   2     2705.62     2292.98    258.28 o
   2   0   2    28398.77    24895.86   2756.95 o
   4   0   2    23080.22    19716.95   1755.88 o
   6   0   2      839.32     1051.24    135.57 o
   8   0   2     1024.60     3175.05    479.46 o
  10   0   2      713.19      918.89    113.07 o
  12   0   2      180.62      193.42     26.95 o
  14   0   2       26.77       14.90     50.42 o
  16   0   2       55.23       69.10     36.15 o
 -17   1   2       44.35       42.44     28.16 o
 -15   1   2        6.36        6.72     27.97 o
 -13   1   2      353.60      318.76     37.38 o
 -11   1   2        5.59       38.57     25.75 o
  -9   1   2     1239.89     1386.95     53.99 o
  -7   1   2      496.95      525.27     44.41 o
  -5   1   2     6906.77    10148.13    261.78 o
  -3   1   2     6142.25     7880.77    414.45 o
  -1   1   2      686.70      811.48     36.69 o
   1   1   2    32671.89    30011.24   2385.69 o
   3   1   2      157.53      302.26     43.72 o
   5   1   2    11294.63    11818.90    462.14 o
   7   1   2       17.04       41.87     17.52 o
   9   1   2      870.37      799.97     48.43 o
  11   1   2      381.10      343.89     37.65 o
  13   1   2     1033.25     1310.11     48.00 o
  15   1   2        6.24       14.22     25.19 o
  17   1   2      100.57       99.90     33.95 o
 -16   2   2      490.34      495.82     33.77 o
 -14   2   2      176.18      430.48    195.61 o
 -12   2   2     1090.62     1082.27     59.90 o
 -10   2   2     1626.24     1919.00     49.27 o
  -8   2   2      217.07      379.24    117.34 o
  -6   2   2       85.39      228.29     42.71 o
  -4   2   2       75.20      100.22     11.58 o
  -2   2   2    15391.18    13451.08    820.71 o
   0   2   2       14.52       36.52     24.83 o
   2   2   2    26852.55    26498.73   1566.60 o
   4   2   2    14156.98    13137.68    481.20 o
   6   2   2      211.49      197.51     16.22 o
   8   2   2     3328.61     5507.92    239.51 o
  10   2   2      208.53      230.50     17.40 o
  12   2   2      827.98      844.29     27.76 o
  14   2   2       43.21       45.48     25.53 o
  16   2   2       10.74       14.20     29.97 o
 -17   3   2       11.48       11.16     29.57 o
 -15   3   2        2.46       10.81     31.53 o
 -13   3   2      154.34      137.32     23.81 o
 -11   3   2     2375.30     2448.57     80.66 o
  -9   3   2     1113.84      928.03     58.52 o
  -7   3   2      359.13      370.67     16.94 o
  -5   3   2     6626.72     6444.87    345.69 o
  -3   3   2    18435.60    19578.75    646.57 o
  -1   3   2    17235.81    15570.88   1211.28 o
   1   3   2    15938.01    13576.99    792.90 o
   3   3   2    22217.96    22230.14   1198.09 o
   5   3   2      925.27     1219.03     29.29 o
   7   3   2     1697.46     1838.01     40.22 o
   9   3   2     1046.50      914.80     53.57 o
  11   3   2      385.45      367.85     33.38 o
  13   3   2       20.61       41.88     26.73 o
  15   3   2        6.39       12.75     29.98 o
 -16   4   2      105.65      126.80     32.99 o
 -14   4   2      440.64      431.26     30.95 o
 -12   4   2       86.98      113.36     23.25 o
 -10   4   2      302.45      289.14     20.13 o
  -8   4   2      892.14     1024.35     47.58 o
  -6   4   2     2075.61     2129.19     34.43 o
  -4   4   2     1380.34     1199.66    103.41 o
  -2   4   2     9935.36    11977.55    299.96 o
   0   4   2     5808.24     8321.12    281.15 o
   2   4   2     9334.37     7958.46    482.44 o
   4   4   2      616.44      548.41     15.31 o
   6   4   2      450.61      433.45     10.68 o
   8   4   2       10.55       20.45     16.88 o
  10   4   2      109.99      119.89     19.96 o
  12   4   2      276.24      250.69     42.10 o
  14   4   2       24.51       33.60     34.94 o
  16   4   2       22.49       23.22     38.68 o
 -17   5   2       16.39       18.41     38.35 o
 -15   5   2        2.16       10.81     42.07 o
 -13   5   2       36.28       56.23     25.26 o
 -11   5   2     1053.28     1010.05     33.93 o
  -9   5   2       14.74       11.25     15.52 o
  -7   5   2      866.36      852.86     16.86 o
  -5   5   2    12373.58    12543.61    369.83 o
  -3   5   2      445.64      411.09     23.46 o
  -1   5   2      132.24      126.51     22.76 o
   1   5   2    10778.08    10158.25    463.59 o
   3   5   2        1.26       26.30     21.32 o
   5   5   2      859.20      972.31     32.35 o
   7   5   2      179.11      160.40     19.07 o
   9   5   2      274.03      418.18     77.53 o
  11   5   2     2322.88     2171.73     73.77 o
  13   5   2      464.67      414.30     52.68 o
  15   5   2       16.96        7.19     41.14 o
 -16   6   2       27.33       27.09     43.63 o
 -14   6   2      104.26       97.63     35.36 o
 -12   6   2      479.83      392.97     56.99 o
 -10   6   2      992.61      908.80     63.33 o
  -8   6   2     1088.50     1124.89     31.63 o
  -6   6   2      244.42      243.09     20.48 o
  -4   6   2     9453.24    12036.88    258.57 o
  -2   6   2      121.90      110.87     15.43 o
   0   6   2       19.62       30.47     12.17 o
   2   6   2      739.13      864.25     96.64 o
   4   6   2     5405.49     6319.39    230.85 o
   6   6   2      932.48      897.56     54.17 o
   8   6   2       30.79       19.80     28.45 o
  10   6   2       33.60       37.27     33.06 o
  12   6   2      858.51      967.97     76.96 o
  14   6   2        4.76        2.14     42.40 o
  16   6   2       14.06        7.85     45.63 o
 -15   7   2      184.34      134.11     59.34 o
 -13   7   2       36.43       44.70     47.35 o
 -11   7   2      795.41      929.48     65.97 o
  -9   7   2      255.01      302.91     24.72 o
  -7   7   2      173.20      494.36     37.20 o
  -5   7   2      197.06      500.56     32.27 o
  -3   7   2     1244.82     1174.25    117.85 o
  -1   7   2     1258.16     1461.68     59.47 o
   1   7   2       40.08       75.67     16.10 o
   3   7   2        7.13       39.95     23.32 o
   5   7   2     6583.22     5953.24    172.08 o
   7   7   2      978.45     1087.84    106.12 o
   9   7   2      936.17     1170.34    100.98 o
  11   7   2      692.56      762.98     73.57 o
  13   7   2      194.50      219.42     40.71 o
  15   7   2        6.55       37.23     54.86 o
 -14   8   2       10.85       33.31     38.02 o
 -12   8   2      146.70      137.52     34.45 o
 -10   8   2      803.23      789.39     74.62 o
  -8   8   2     3316.34     2742.70    141.84 o
  -6   8   2       21.16       30.68     29.17 o
  -4   8   2     1944.18     1832.22     68.85 o
  -2   8   2     1279.55     1050.37     73.99 o
   0   8   2     3827.16     3447.22    126.79 o
   2   8   2     2848.49     2628.52    110.01 o
   4   8   2      287.06      274.22     33.15 o
   6   8   2     1156.06     1219.24     82.89 o
   8   8   2     3424.09     2903.87    132.40 o
  10   8   2       38.19       54.91     34.75 o
  12   8   2        4.99        2.63     41.92 o
  14   8   2       26.51       25.71     46.59 o
 -15   9   2       10.20       12.56     41.06 o
 -13   9   2       26.20       32.14     38.05 o
 -11   9   2        1.07        3.51     32.90 o
  -9   9   2       23.55       22.54     25.42 o
  -7   9   2      659.74      942.26     46.50 o
  -5   9   2     3465.90     3181.27    112.33 o
  -3   9   2      581.94      837.96     79.39 o
  -1   9   2      244.94      249.28     29.94 o
   1   9   2      187.21      223.29     22.30 o
   3   9   2       72.10       62.43     21.20 o
   5   9   2      287.31      259.16     34.23 o
   7   9   2     1456.24     1390.77     43.69 o
   9   9   2       74.60       89.57     32.41 o
  11   9   2      337.79      313.60     56.77 o
  13   9   2       74.36       58.14     61.18 o
 -14  10   2       10.73       11.10     45.13 o
 -12  10   2        2.33        4.74     38.80 o
 -10  10   2       71.73       91.99     34.31 o
  -8  10   2      262.32      289.97     25.40 o
  -6  10   2       96.30       81.08     32.31 o
  -4  10   2       12.29       32.43     35.75 o
  -2  10   2       44.93       77.53     29.60 o
   0  10   2     4055.76     3488.74    149.32 o
   2  10   2        2.08       42.66     36.67 o
   4  10   2     1549.29     1595.27     54.03 o
   6  10   2     2131.55     1848.16     68.12 o
   8  10   2      855.29      668.80     76.75 o
  10  10   2       45.58       47.62     39.29 o
  12  10   2      710.01      647.46     69.54 o
 -13  11   2      127.19      113.69     48.08 o
 -11  11   2       21.09       20.99     37.10 o
  -9  11   2       67.14       69.58     34.48 o
  -7  11   2        9.51        9.03     35.21 o
  -5  11   2      386.26      316.31     46.68 o
  -3  11   2       36.03       26.30     43.64 o
  -1  11   2      123.81      101.42     34.94 o
   1  11   2        0.37       21.36     33.57 o
   3  11   2     1071.18     1239.53    101.34 o
   5  11   2     1310.21     1323.15     66.64 o
   7  11   2      137.12      133.85     29.70 o
   9  11   2       34.75       36.45     39.84 o
  11  11   2        9.44       15.78     49.48 o
 -12  12   2      512.73      482.96     92.03 o
 -10  12   2      168.04      177.64     65.45 o
  -8  12   2       43.61       72.36     42.62 o
  -6  12   2      485.24      464.12     42.90 o
  -4  12   2     3357.50     2922.45    126.49 o
  -2  12   2      136.20      135.95     41.29 o
   0  12   2      317.84      293.05     36.89 o
   2  12   2       30.90       35.05     42.66 o
   4  12   2      163.12      146.00     39.21 o
   6  12   2      126.44      138.24     40.17 o
   8  12   2       29.85       43.99     51.76 o
  10  12   2      133.62      133.82     87.36 o
 -11  13   2       47.75       38.57     63.99 o
  -9  13   2        5.12        3.51     49.25 o
  -7  13   2       79.15       67.70     41.82 o
  -5  13   2        0.02       -0.58     39.84 o
  -3  13   2       11.74       10.98     39.88 o
  -1  13   2       21.98       15.78     57.30 o
   1  13   2       86.53       76.55     46.98 o
   3  13   2     1086.65     1350.14     67.23 o
   5  13   2      102.55       92.33     46.69 o
   7  13   2        5.91        3.51     39.03 o
   9  13   2       28.85       26.87     61.20 o
  -8  14   2       44.20       56.68     53.85 o
  -6  14   2       36.31       35.31     44.53 o
  -4  14   2       32.32       35.57     45.16 o
  -2  14   2       35.11       29.80     58.05 o
   0  14   2      133.02      124.66     70.71 o
   2  14   2        0.02        0.99     41.42 o
   4  14   2      389.75      359.92     47.29 o
   6  14   2       20.99       13.44     40.63 o
   8  14   2        0.80       19.24     62.72 o
  -7  15   2       12.31       15.13     48.52 o
  -5  15   2       15.36       15.66     46.81 o
  -3  15   2       81.55       85.90     75.29 o
  -1  15   2       19.27       18.64     74.64 o
   1  15   2      248.27      245.57     78.61 o
   3  15   2       14.49        7.91     42.44 o
   5  15   2        6.65        8.19     43.70 o
  -2  16   2        1.04        1.17     74.95 o
   0  16   2       36.54       31.39     82.32 o
   2  16   2        2.82        6.73     44.29 o
 -18   1   3       57.98       78.08     29.42 o
 -16   1   3       20.08       21.91     30.68 o
 -14   1   3     1049.08      967.68     57.23 o
 -12   1   3      947.06      807.86     80.13 o
 -10   1   3      682.23      648.04     46.28 o
  -8   1   3     7004.51     7497.04    545.93 o
  -6   1   3     6979.26     7397.44    392.34 o
  -4   1   3     6483.38     5692.85    175.71 o
  -2   1   3    44072.68    79332.29   3294.93 o
   0   1   3    10758.82    13196.47    693.85 o
   2   1   3     3253.51     2731.06     95.41 o
   4   1   3     8105.19     9388.31    180.04 o
   6   1   3      598.31      463.68     43.36 o
   8   1   3     2789.29     3039.70     50.29 o
  10   1   3     2436.05     2229.33     61.33 o
  12   1   3      356.09      674.34     51.24 o
  14   1   3       23.18       48.50     26.94 o
  16   1   3        9.41        8.30     34.07 o
 -17   2   3       30.39       23.37     28.60 o
 -15   2   3      130.22      137.61     27.37 o
 -13   2   3      210.93      158.36     47.17 o
 -11   2   3     1244.03     1122.59     62.28 o
  -9   2   3      679.66      824.22     49.26 o
  -7   2   3     2465.05     2277.23    118.27 o
  -5   2   3        1.26      149.26     77.67 o
  -3   2   3    13944.37    13787.86    624.43 o
  -1   2   3     4758.27     5306.60    431.25 o
   1   2   3    26438.15    25106.93   1226.75 o
   3   2   3    10069.30    12820.54    415.89 o
   5   2   3     2686.53     2616.42    108.03 o
   7   2   3       29.61       39.49      8.21 o
   9   2   3      980.66      984.04     22.34 o
  11   2   3       14.61       14.22     21.82 o
  13   2   3        0.30       -0.40     27.15 o
  15   2   3      104.31      117.60     31.72 o
 -16   3   3        3.51        1.85     33.12 o
 -14   3   3      461.35      420.44     43.07 o
 -12   3   3       14.66        9.37     24.57 o
 -10   3   3      843.04      669.52     62.07 o
  -8   3   3      470.04      407.94     51.45 o
  -6   3   3    13229.85    11478.14    519.93 o
  -4   3   3    15603.39    16633.52    616.33 o
  -2   3   3    32878.48    29391.75   1021.30 o
   0   3   3     3927.81     4502.09    271.47 o
   2   3   3     4233.68     3656.15    140.50 o
   4   3   3     2592.29     2547.15     73.83 o
   6   3   3     4710.93     4830.71     62.66 o
   8   3   3     4873.81     4405.22    170.74 o
  10   3   3        0.29        1.68     19.88 o
  12   3   3      368.54      367.37     28.61 o
  14   3   3       65.28       79.21     28.38 o
  16   3   3       27.98       33.14     33.96 o
 -17   4   3       17.73       44.30     32.38 o
 -15   4   3       33.02       29.02     25.26 o
 -13   4   3      368.98      492.00    107.98 o
 -11   4   3      915.46      812.54     33.00 o
  -9   4   3      561.31      532.05     29.07 o
  -7   4   3     1850.47     3292.66    937.14 o
  -5   4   3      919.64     1219.79     53.97 o
  -3   4   3     2039.58     1959.10     83.28 o
  -1   4   3     5279.77     4679.54    158.20 o
   1   4   3    48738.27    77805.57   2037.91 o
   3   4   3    43779.41    62611.73   5009.15 o
   5   4   3      528.32      543.24     12.84 o
   7   4   3      124.18      113.36     28.97 o
   9   4   3     2899.69     2632.84     92.67 o
  11   4   3      249.96      282.02     26.57 o
  13   4   3       61.41       47.33     41.37 o
  15   4   3       18.20       15.78     35.43 o
 -16   5   3       22.52       19.34     39.74 o
 -14   5   3      139.75      132.17     25.24 o
 -12   5   3     1104.34     1233.00    119.55 o
 -10   5   3        8.29       40.61     22.12 o
  -8   5   3      254.43      223.81     20.88 o
  -6   5   3     4594.01     4219.46     96.34 o
  -4   5   3     8522.80    10976.06    243.53 o
  -2   5   3     4832.65     6374.82    203.15 o
   0   5   3     8894.20     8024.05    259.87 o
   2   5   3     4326.85     4061.58    112.93 o
   4   5   3       17.59       22.27     14.20 o
   6   5   3     1403.61     1332.69    114.70 o
   8   5   3      409.71      576.46     34.22 o
  10   5   3     3050.49     2885.99    123.93 o
  12   5   3       31.56       48.79     41.68 o
  14   5   3        0.92        1.46     41.97 o
  16   5   3        0.95        0.29     40.82 o
 -15   6   3      303.76      282.24     45.13 o
 -13   6   3      108.05      105.47     40.09 o
 -11   6   3     1095.85      992.14     53.87 o
  -9   6   3        8.38       14.41     15.99 o
  -7   6   3     2273.13     1938.48    150.34 o
  -5   6   3      703.47      934.08     36.63 o
  -3   6   3     7754.53     9657.18    213.05 o
  -1   6   3     5859.33     4783.09     98.67 o
   1   6   3        8.66       45.97     18.03 o
   3   6   3    14933.86    16466.61    508.26 o
   5   6   3    11570.33    11022.92    221.55 o
   7   6   3     1625.99     1734.39     67.59 o
   9   6   3      228.74      252.15     34.89 o
  11   6   3      122.72      459.01     77.27 o
  13   6   3       11.48       12.56     44.03 o
  15   6   3      299.92      271.14     63.08 o
 -16   7   3      104.93      100.95     42.75 o
 -14   7   3        0.80        3.82     35.73 o
 -12   7   3        5.47        4.38     27.72 o
 -10   7   3      990.51      918.60     38.63 o
  -8   7   3       65.14       87.24     18.32 o
  -6   7   3     1350.34     1346.10     44.15 o
  -4   7   3      311.38      302.04     71.08 o
  -2   7   3       24.00       47.92     19.12 o
   0   7   3    10139.61    12677.04    283.15 o
   2   7   3      827.75      729.04     76.23 o
   4   7   3     1662.38     1727.69    101.69 o
   6   7   3     1940.20     1752.29    105.73 o
   8   7   3       57.91       39.44     33.63 o
  10   7   3      934.13      984.86     88.38 o
  12   7   3        3.05        2.99     39.99 o
  14   7   3      221.30      202.89     57.35 o
 -15   8   3       66.58       51.71     38.64 o
 -13   8   3      542.86      481.79     60.31 o
 -11   8   3       57.17       41.49     30.74 o
  -9   8   3       45.46       60.31     26.29 o
  -7   8   3      212.08      203.94     26.97 o
  -5   8   3      591.08      578.63     18.49 o
  -3   8   3     1802.07     1658.38     61.13 o
  -1   8   3      476.74      619.12     62.35 o
   1   8   3     3687.33     3572.98     85.10 o
   3   8   3     5120.29     4582.50    135.09 o
   5   8   3      273.41      360.02     39.75 o
   7   8   3       68.70      283.99     44.90 o
   9   8   3      186.99      214.54     29.95 o
  11   8   3        1.32        7.30     42.59 o
  13   8   3        0.02        1.33     47.86 o
 -14   9   3       77.91       76.05     41.52 o
 -12   9   3      143.03      159.61     37.68 o
 -10   9   3       80.84      112.40     29.46 o
  -8   9   3      974.41      816.17     55.94 o
  -6   9   3      242.33      254.82     28.72 o
  -4   9   3     1954.02     2017.17     58.09 o
  -2   9   3     1680.09     1783.72     68.69 o
   0   9   3      511.62      616.63     78.86 o
   2   9   3     1504.49     1408.98     50.02 o
   4   9   3      312.78      323.94     23.78 o
   6   9   3       20.89       55.66     37.09 o
   8   9   3      132.05      130.72     33.93 o
  10   9   3      494.81      469.02     49.68 o
  12   9   3       48.82       44.12     65.77 o
  14   9   3       11.36        4.97     62.55 o
 -13  10   3        4.92        2.08     40.09 o
 -11  10   3       63.73       52.88     39.06 o
  -9  10   3       23.16       12.78     27.76 o
  -7  10   3        5.15       30.68     26.79 o
  -5  10   3       74.77       81.74     29.90 o
  -3  10   3      193.16      165.37     37.84 o
  -1  10   3      169.54      149.01     27.49 o
   1  10   3      523.99      445.27     33.65 o
   3  10   3        0.14      208.66     49.24 o
   5  10   3     1409.92     1179.49    107.54 o
   7  10   3        8.22       16.36     38.87 o
   9  10   3      130.06      129.28     38.13 o
  11  10   3       56.66       43.83     60.44 o
  13  10   3        4.52        9.17     59.18 o
 -12  11   3        5.18        1.97     39.98 o
 -10  11   3        0.12        2.85     32.57 o
  -8  11   3      654.58      587.76     44.23 o
  -6  11   3        3.75        5.68     35.12 o
  -4  11   3      266.38      258.19     45.19 o
  -2  11   3     1212.21     1165.83     52.72 o
   0  11   3      727.58      976.85     50.65 o
   2  11   3     1550.73     1789.27     57.85 o
   4  11   3      286.18      282.40     43.99 o
   6  11   3      298.29      320.96     31.01 o
   8  11   3      236.30      265.29     37.15 o
  10  11   3       31.96       44.41     46.11 o
  12  11   3       30.70       34.16     59.31 o
 -11  12   3        5.52        8.47     54.93 o
  -9  12   3      173.78      148.67     50.92 o
  -7  12   3        0.30       -0.29     38.78 o
  -5  12   3       98.66      125.05     44.53 o
  -3  12   3      254.34      264.34     44.78 o
  -1  12   3      652.31      665.86     62.16 o
   1  12   3      249.13      228.77     39.55 o
   3  12   3       73.20       79.36     42.81 o
   5  12   3       25.06       32.14     54.05 o
   7  12   3      149.82      139.31     42.00 o
   9  12   3       43.11       30.96     60.09 o
  11  12   3        2.22        0.54     55.97 o
 -10  13   3        1.44        0.58     65.45 o
  -8  13   3        7.40        7.51     51.01 o
  -6  13   3       40.32       39.53     42.66 o
  -4  13   3      151.83      158.36     47.51 o
  -2  13   3      129.43      163.48     61.80 o
   0  13   3      302.70      326.65     57.52 o
   2  13   3      477.80      466.60     44.16 o
   4  13   3      333.30      342.96     42.41 o
   6  13   3       40.44       30.97     48.84 o
   8  13   3       89.34       91.16     59.64 o
  10  13   3      122.89      130.31     87.65 o
  -9  14   3       36.24       40.51     53.63 o
  -7  14   3      180.19      165.85     48.60 o
  -5  14   3       48.45       44.34     45.20 o
  -3  14   3        0.76        0.90     63.53 o
  -1  14   3        6.26        6.72     65.07 o
   1  14   3        8.75        6.71     40.65 o
   3  14   3       51.47       48.87     43.94 o
   5  14   3       37.61       39.59     45.39 o
   7  14   3        2.02        2.63     44.79 o
  -6  15   3       73.62       72.46     66.03 o
  -4  15   3      257.13      217.91     67.26 o
  -2  15   3      315.07      332.94     72.20 o
   0  15   3       53.73       43.53     70.69 o
   2  15   3        1.15        7.58     45.53 o
   4  15   3      116.98      134.40     43.27 o
   6  15   3       34.41       50.98     49.82 o
  -3  16   3       80.77       60.32     73.30 o
  -1  16   3        5.33        9.94     77.86 o
   1  16   3        0.48       -0.58     73.84 o
 -18   0   4      113.83      104.60     48.50 o
 -16   0   4      172.42      153.39     76.84 o
 -14   0   4       72.21       63.69     64.28 o
 -12   0   4     2077.57     2023.01     75.97 o
 -10   0   4     1413.68     1176.29    212.41 o
  -8   0   4     4193.06     7220.79    352.07 o
  -6   0   4    12596.22    12147.43    578.50 o
  -4   0   4    19191.88    19065.03    666.08 o
  -2   0   4      920.90      944.01    177.06 o
   0   0   4      929.13      921.44     86.34 o
   2   0   4    18938.21    19669.16   1230.83 o
   4   0   4     1910.22     3762.25    264.55 o
   6   0   4     6975.36     6929.57    281.17 o
   8   0   4     3922.21     4319.21    254.79 o
  10   0   4      163.31      470.11     71.56 o
  12   0   4     1346.06     1626.24     80.77 o
  14   0   4       28.04       31.84     35.32 o
  16   0   4       29.81       25.71     64.28 o
 -17   1   4       19.38       18.26     33.88 o
 -15   1   4        2.24        3.51     29.32 o
 -13   1   4      142.63      140.96     23.69 o
 -11   1   4     1360.98     1193.24     56.38 o
  -9   1   4     2693.43     2375.65    104.43 o
  -7   1   4      107.97      100.80     12.49 o
  -5   1   4      530.78      505.75     20.30 o
  -3   1   4     7250.92     7517.93    314.49 o
  -1   1   4     5772.69     8368.62    529.29 o
   1   1   4    27986.78    25610.79   1275.16 o
   3   1   4    19213.44    19389.85    886.79 o
   5   1   4     1858.06     1903.93     43.92 o
   7   1   4      287.21      260.77     22.54 o
   9   1   4       10.81       32.43     30.33 o
  11   1   4      110.86       81.81     26.30 o
  13   1   4       45.02       45.03     21.87 o
  15   1   4        0.44       -0.58     29.47 o
 -18   2   4       22.68       19.58     27.35 o
 -16   2   4       52.96       31.26     37.36 o
 -14   2   4       53.83       80.93     32.33 o
 -12   2   4      279.52      262.66     35.64 o
 -10   2   4       52.22       74.50     21.71 o
  -8   2   4     7756.51     7115.82    160.95 o
  -6   2   4     7033.07     9202.82    289.57 o
  -4   2   4     7427.13     7761.76    388.71 o
  -2   2   4    14707.87    14880.10    437.84 o
   0   2   4   124214.45   132749.75   5157.85 o
   2   2   4     3655.67     3442.04    118.12 o
   4   2   4     1214.88     1092.03     88.38 o
   6   2   4      643.12      677.81     10.46 o
   8   2   4     5089.80     4364.61    174.40 o
  10   2   4       28.08       34.18     25.66 o
  12   2   4      416.62      372.23     35.46 o
  14   2   4      286.28      263.54     37.93 o
  16   2   4       30.44       24.93     32.25 o
 -17   3   4      167.72      149.59     33.23 o
 -15   3   4      117.51      139.37     31.91 o
 -13   3   4      962.64     1006.54     64.01 o
 -11   3   4        1.76       36.81     24.58 o
  -9   3   4      653.93      702.39     60.33 o
  -7   3   4    22572.95    21080.79    822.64 o
  -5   3   4     7258.38     9911.80    318.49 o
  -3   3   4     1896.21     1670.49     17.46 o
  -1   3   4     1524.79     1570.73    127.61 o
   1   3   4     1232.26     1485.48     42.58 o
   3   3   4       70.41       70.05     23.40 o
   5   3   4        2.64      174.72     37.46 o
   7   3   4      617.80      644.54     31.35 o
   9   3   4       41.26       61.18     20.66 o
  11   3   4      413.58      421.02     51.06 o
  13   3   4       99.10       99.63     32.58 o
  15   3   4       11.70        8.91     31.42 o
 -16   4   4        3.44        5.64     25.86 o
 -14   4   4      104.82      104.63     23.25 o
 -12   4   4     1872.98     1963.70     88.51 o
 -10   4   4       43.88       41.49     16.18 o
  -8   4   4        3.17        7.77     14.53 o
  -6   4   4     5212.31     4717.73     78.24 o
  -4   4   4     9555.56    11841.24    431.35 o
  -2   4   4       71.23       98.46     14.07 o
   0   4   4     9740.56    11461.25    325.33 o
   2   4   4    13923.59    15579.42    378.39 o
   4   4   4     5160.79     6403.43    245.78 o
   6   4   4     5027.24     4722.13    253.12 o
   8   4   4      479.76      332.49     46.90 o
  10   4   4      948.49      911.00     75.64 o
  12   4   4      721.23      746.29     53.64 o
  14   4   4        2.35        1.62     38.44 o
  16   4   4       24.05       22.21     43.87 o
 -17   5   4        1.18        1.71     36.00 o
 -15   5   4      268.52      329.21     78.56 o
 -13   5   4      474.12      469.32     35.48 o
 -11   5   4      449.21      409.51     23.27 o
  -9   5   4        2.38        0.74     16.62 o
  -7   5   4    12071.91    13869.91    263.18 o
  -5   5   4    15176.21    15370.10    373.00 o
  -3   5   4     3396.38     2890.85     89.51 o
  -1   5   4     6957.71     6078.96    177.53 o
   1   5   4     1642.30     1763.85     32.48 o
   3   5   4     2318.56     2046.80    155.86 o
   5   5   4      470.16      681.79     93.63 o
   7   5   4     6245.72     5545.86    128.86 o
   9   5   4      137.06      121.54     36.36 o
  11   5   4      128.85      125.63     48.51 o
  13   5   4      100.43       98.43     38.77 o
  15   5   4       13.09        5.88     43.64 o
 -16   6   4       26.53       20.99     35.51 o
 -14   6   4       85.60       88.24     31.54 o
 -12   6   4       56.49       61.36     21.35 o
 -10   6   4        0.18        9.70     19.05 o
  -8   6   4     1321.73     1049.90     63.26 o
  -6   6   4     1972.11     1715.99    101.47 o
  -4   6   4      185.94      200.63     19.55 o
  -2   6   4        2.85       31.76     12.33 o
   0   6   4      685.18      730.73     44.22 o
   2   6   4      721.06      749.43     74.14 o
   4   6   4     2220.46     1932.98     87.55 o
   6   6   4       23.60       25.83     19.48 o
   8   6   4      183.81      187.38     27.75 o
  10   6   4       75.73       65.15     44.50 o
  12   6   4        0.74       -0.45     39.80 o
  14   6   4      162.41      150.47     51.76 o
 -15   7   4       11.47        5.72     33.30 o
 -13   7   4       52.86       48.50     27.44 o
 -11   7   4       15.64       22.65     27.15 o
  -9   7   4     1538.21     1425.81     28.42 o
  -7   7   4     2338.39     2041.71     51.00 o
  -5   7   4     9627.57    11203.51    231.01 o
  -3   7   4     1519.68     1431.71    127.97 o
  -1   7   4    13275.80    14924.33    323.85 o
   1   7   4     6292.98     5987.12    103.43 o
   3   7   4     6213.50     5629.33    425.11 o
   5   7   4       27.41       29.07     20.21 o
   7   7   4     3314.35     3183.46    108.23 o
   9   7   4      974.51     1252.67     71.35 o
  11   7   4       51.07       49.96     49.58 o
  13   7   4        0.67       20.36     48.32 o
  15   7   4       14.53       18.49     51.71 o
 -14   8   4      397.30      387.13     49.69 o
 -12   8   4      125.94      120.08     30.53 o
 -10   8   4      254.46      233.21     29.04 o
  -8   8   4       42.72       33.82     19.47 o
  -6   8   4     5398.94     4749.39    126.58 o
  -4   8   4       59.61       81.47     17.44 o
  -2   8   4     5558.99     5144.61    312.12 o
   0   8   4      116.56       92.13     21.31 o
   2   8   4     1663.86     1591.72     40.39 o
   4   8   4       32.90       70.63     23.81 o
   6   8   4      140.35      453.16     62.58 o
   8   8   4      125.68      116.58     46.90 o
  10   8   4       26.23       57.27     50.80 o
  12   8   4      147.26      133.19     47.51 o
  14   8   4       85.04       73.77     57.06 o
 -15   9   4       90.84       59.90     52.62 o
 -13   9   4      161.70      159.96     31.92 o
 -11   9   4      298.72      300.35     41.47 o
  -9   9   4      716.24      663.82     81.19 o
  -7   9   4      630.33      564.19     34.83 o
  -5   9   4      104.38      115.70     22.66 o
  -3   9   4     1436.59     1386.95     33.23 o
  -1   9   4      642.39      774.26     75.69 o
   1   9   4      494.24      451.99     30.07 o
   3   9   4     2115.68     2094.88     41.69 o
   5   9   4      807.59      992.13     47.90 o
   7   9   4        0.04        5.55     31.81 o
   9   9   4      600.91      777.11     68.68 o
  11   9   4       48.19       78.89     52.58 o
  13   9   4      252.28      231.82     72.11 o
 -14  10   4       37.93       33.02     35.49 o
 -12  10   4        5.85       45.42     40.09 o
 -10  10   4       76.88      104.18     30.71 o
  -8  10   4      503.56      536.67     23.03 o
  -6  10   4       21.38       19.79     30.84 o
  -4  10   4      761.73      688.74     73.21 o
  -2  10   4     1764.73     1706.74     29.78 o
   0  10   4      657.56      647.63     23.72 o
   2  10   4        0.61       32.32     42.66 o
   4  10   4     1037.50      800.25    111.55 o
   6  10   4      125.09      130.31     28.67 o
   8  10   4      201.87      220.46     40.78 o
  10  10   4        3.66       22.50     60.54 o
  12  10   4        0.72        1.73     53.78 o
 -13  11   4       19.38       14.90     40.04 o
 -11  11   4       60.80       67.78     38.40 o
  -9  11   4       78.47       84.44     38.27 o
  -7  11   4       79.46       77.92     41.88 o
  -5  11   4      108.57      106.64     33.48 o
  -3  11   4      877.08      746.59     73.15 o
  -1  11   4      297.81      289.84     47.62 o
   1  11   4      950.77      881.28     53.52 o
   3  11   4       48.12       41.30     37.20 o
   5  11   4       40.85       44.24     40.94 o
   7  11   4       70.72       54.34     32.57 o
   9  11   4       34.89       18.99     40.35 o
  11  11   4       17.19        8.47     51.76 o
 -12  12   4        2.06        4.67     65.74 o
 -10  12   4       41.32       29.42     49.96 o
  -8  12   4       53.85       80.35     43.12 o
  -6  12   4      747.65      754.69     46.66 o
  -4  12   4      432.18      487.77     34.09 o
  -2  12   4      355.36      304.01     79.75 o
   0  12   4      320.01      307.66     40.90 o
   2  12   4       14.80       62.53     47.75 o
   4  12   4        6.80        5.55     58.47 o
   6  12   4        4.43        7.28     41.31 o
   8  12   4       14.99       13.44     56.71 o
  10  12   4        0.63        2.63     54.36 o
 -11  13   4        0.21        2.34     67.78 o
  -9  13   4        7.54        7.76     47.15 o
  -7  13   4       68.16       57.57     39.97 o
  -5  13   4       10.27        9.53     38.27 o
  -3  13   4       53.64       37.40     63.41 o
  -1  13   4        5.94        7.82     57.96 o
   1  13   4      180.35      151.05     43.05 o
   3  13   4       10.08        7.35     44.72 o
   5  13   4      226.70      198.39     50.53 o
   7  13   4        1.95        6.72     43.26 o
   9  13   4       33.83       69.54    101.09 o
  -8  14   4       67.22       87.15     53.58 o
  -6  14   4        2.25        6.83     43.89 o
  -4  14   4        9.50       14.65     61.86 o
  -2  14   4      115.98      131.19     57.56 o
   0  14   4      285.78      293.05     63.22 o
   2  14   4        4.04        2.63     39.98 o
   4  14   4       34.10       41.20     40.88 o
   6  14   4       89.05       88.73     45.78 o
   8  14   4       44.63       52.59     68.43 o
  -7  15   4        4.48        5.84     62.70 o
  -5  15   4       30.25       28.05     65.50 o
  -3  15   4       31.95       43.77     67.67 o
  -1  15   4       94.80      120.85     73.65 o
   1  15   4       10.20       16.65     66.43 o
   3  15   4        0.26        5.35     43.01 o
   5  15   4       67.17       72.17     47.02 o
  -2  16   4        9.61        6.00     78.66 o
   0  16   4      137.95      138.20     81.40 o
 -18   1   5       30.42       40.03     42.30 o
 -16   1   5        9.05       16.64     30.26 o
 -14   1   5      179.12      196.24     23.38 o
 -12   1   5      868.71      664.99    146.68 o
 -10   1   5      296.60      329.86     22.93 o
  -8   1   5     3070.52     2914.14     93.59 o
  -6   1   5      807.30     1023.57     89.71 o
  -4   1   5      762.61      917.35     34.20 o
  -2   1   5    34777.81    31608.13   1888.72 o
   0   1   5     2109.06     1764.32    176.15 o
   2   1   5     1491.51     1352.34     74.19 o
   4   1   5     4550.73     6721.48    188.40 o
   6   1   5     2132.28     2023.53     50.30 o
   8   1   5     2723.22     2435.41    108.87 o
  10   1   5       32.19       62.53     22.37 o
  12   1   5        0.97        0.78     20.88 o
  14   1   5       85.99       93.08     31.66 o
  16   1   5       52.45       50.84     42.26 o
 -17   2   5        2.80        3.37     32.75 o
 -15   2   5      673.35      632.85     35.22 o
 -13   2   5      255.09      233.30     40.67 o
 -11   2   5       12.88       19.17     22.60 o
  -9   2   5      441.18      444.10     12.95 o
  -7   2   5     2411.46     2296.78     33.42 o
  -5   2   5    24711.24    24312.51    960.57 o
  -3   2   5     3476.51     3220.08    145.34 o
  -1   2   5     1439.27     1653.97    151.68 o
   1   2   5      201.43      457.02     37.18 o
   3   2   5     1715.64     1415.11     91.23 o
   5   2   5      363.90      379.61     10.07 o
   7   2   5      171.02      201.52     14.10 o
   9   2   5       83.01       74.02     15.44 o
  11   2   5        0.48        0.37     18.64 o
  13   2   5      134.64      147.26     33.76 o
  15   2   5      266.75      261.31     37.88 o
 -16   3   5      197.85      203.19     28.83 o
 -14   3   5       10.14       18.41     26.33 o
 -12   3   5      217.90      569.74     54.94 o
 -10   3   5       14.15       23.08     20.82 o
  -8   3   5     8221.22    11400.05    243.46 o
  -6   3   5     8981.29     8132.64    146.97 o
  -4   3   5     2015.22     1962.65    105.97 o
  -2   3   5     4479.21     3791.05    195.78 o
   0   3   5      371.17      542.24     40.58 o
   2   3   5      255.43      266.43     11.77 o
   4   3   5      700.08      715.41     26.59 o
   6   3   5     1904.39     1894.16     46.11 o
   8   3   5      419.93      406.19     25.92 o
  10   3   5      326.10      260.33     44.18 o
  12   3   5       28.89       36.27     25.69 o
  14   3   5      492.18      442.24     48.29 o
  16   3   5        4.69        2.25     35.89 o
 -17   4   5        7.95        9.79     27.17 o
 -15   4   5      169.34      202.48     27.96 o
 -13   4   5      154.69      171.82     23.45 o
 -11   4   5      736.96      803.19     19.29 o
  -9   4   5      403.84      390.43     18.46 o
  -7   4   5     4285.82     3782.24    250.20 o
  -5   4   5     2988.05     6746.86    250.82 o
  -3   4   5     2767.17     2690.34     87.19 o
  -1   4   5    15890.88    15466.60    614.88 o
   1   4   5     6438.55     8145.74    356.94 o
   3   4   5        3.51       10.14     11.06 o
   5   4   5     7950.63     8791.51    328.86 o
   7   4   5      321.02      367.67     33.39 o
   9   4   5     1380.77     1445.59     71.98 o
  11   4   5      140.62      142.00     28.38 o
  13   4   5       10.14       11.22     31.69 o
  15   4   5        8.44        6.05     42.12 o
 -16   5   5      640.57      539.06     45.91 o
 -14   5   5        0.59        0.29     22.83 o
 -12   5   5       43.58       80.06     22.06 o
 -10   5   5      326.91      329.43     17.85 o
  -8   5   5      143.27      143.08     14.29 o
  -6   5   5     4155.19     3735.35    124.65 o
  -4   5   5    11598.74    11819.17    241.80 o
  -2   5   5      360.90      289.84     24.92 o
   0   5   5     9446.81    11141.95    301.58 o
   2   5   5    13872.56    13052.95    481.76 o
   4   5   5        0.43        3.62     15.79 o
   6   5   5       19.39       29.51     24.85 o
   8   5   5      414.07      487.61     70.46 o
  10   5   5      819.45      763.16     55.56 o
  12   5   5      121.74       95.92     44.40 o
  14   5   5       37.80       33.54     42.19 o
 -17   6   5      113.15      118.04     38.84 o
 -15   6   5     1086.33     1040.60     64.96 o
 -13   6   5      508.93      493.61     31.92 o
 -11   6   5      345.67      625.15     82.44 o
  -9   6   5     3846.13     3416.32     63.07 o
  -7   6   5     1015.43     1008.56     11.87 o
  -5   6   5        0.42      169.90    109.01 o
  -3   6   5      275.90      294.51     15.40 o
  -1   6   5     5028.04     4596.65    147.06 o
   1   6   5     4985.46     4611.07    154.03 o
   3   6   5    17004.16    14667.02    566.69 o
   5   6   5      436.96      439.14     23.97 o
   7   6   5      630.15      616.78     70.07 o
   9   6   5       23.53       38.81     37.50 o
  11   6   5      699.32      765.50     91.43 o
  13   6   5      173.44      184.07     50.19 o
  15   6   5      144.83      135.68     54.41 o
 -16   7   5        6.06        2.49     33.77 o
 -14   7   5        7.33       11.60     32.22 o
 -12   7   5      118.23      161.71     30.52 o
 -10   7   5     1421.99     1498.98     46.91 o
  -8   7   5        7.08       23.67     29.88 o
  -6   7   5      482.38      535.55     29.27 o
  -4   7   5     4897.78     4784.64    135.87 o
  -2   7   5     4874.67     4974.27    194.93 o
   0   7   5      227.16      242.14     15.27 o
   2   7   5       16.37       46.36     26.69 o
   4   7   5     3685.03     3192.83    104.78 o
   6   7   5     6108.78     8413.58    289.57 o
   8   7   5      959.70     1106.84     71.99 o
  10   7   5      127.05      109.38     42.86 o
  12   7   5        6.94       10.73     42.60 o
  14   7   5        1.43       -0.58     50.82 o
 -15   8   5      304.86      304.74     45.04 o
 -13   8   5      253.12      250.10     30.97 o
 -11   8   5      194.96      201.56     25.41 o
  -9   8   5      887.60      844.49     25.06 o
  -7   8   5      513.84      544.93     18.86 o
  -5   8   5       60.14       40.90     31.99 o
  -3   8   5     1519.37     1453.26     44.27 o
  -1   8   5     3152.94     2882.21    155.42 o
   1   8   5       10.51       19.98     19.89 o
   3   8   5        6.22        6.43     29.28 o
   5   8   5     1704.62     1441.35     77.41 o
   7   8   5      227.91      226.83     24.28 o
   9   8   5       96.62      106.57     44.23 o
  11   8   5        8.07        5.84     45.34 o
  13   8   5      158.08      149.06     56.50 o
 -14   9   5       33.84       45.43     32.64 o
 -12   9   5       73.38       89.99     39.96 o
 -10   9   5      403.62      358.27     33.40 o
  -8   9   5      552.03      518.40     26.11 o
  -6   9   5       47.81       88.51     22.18 o
  -4   9   5      249.42      222.77     28.70 o
  -2   9   5      387.78      356.80     28.53 o
   0   9   5      903.96      856.65     15.93 o
   2   9   5       98.05       81.05     22.18 o
   4   9   5     1976.29     1731.50     97.04 o
   6   9   5     2021.68     2053.53     72.80 o
   8   9   5        4.53       11.85     36.09 o
  10   9   5       42.26       32.17     48.50 o
  12   9   5       11.49        4.38     55.14 o
 -13  10   5      129.91      132.11     37.50 o
 -11  10   5       18.12       26.00     33.23 o
  -9  10   5      327.84      334.61     29.52 o
  -7  10   5      488.57      478.11     39.22 o
  -5  10   5       35.80       29.22     31.92 o
  -3  10   5     1290.65     1218.07     52.69 o
  -1  10   5        4.18        3.66     30.59 o
   1  10   5      332.32      363.17     47.67 o
   3  10   5        0.95       35.12     32.07 o
   5  10   5      534.43      797.94     54.25 o
   7  10   5      293.25      287.79     40.31 o
   9  10   5       35.36       23.96     51.93 o
  11  10   5      155.08      154.61     55.05 o
 -12  11   5       23.56       14.61     38.47 o
 -10  11   5        8.49       12.56     37.53 o
  -8  11   5      644.93      637.82     37.15 o
  -6  11   5       29.28       68.86     36.95 o
  -4  11   5      217.42      168.37     51.18 o
  -2  11   5     1817.55     1861.88     89.96 o
   0  11   5       90.65       70.71     33.92 o
   2  11   5      164.93      171.03     38.77 o
   4  11   5      781.54      782.44     51.20 o
   6  11   5       43.70       34.27     33.46 o
   8  11   5        1.21       -0.58     40.15 o
  10  11   5       29.44       19.87     57.17 o
 -11  12   5        0.18       -0.58     48.21 o
  -9  12   5       19.39       23.36     44.37 o
  -7  12   5      382.93      377.78     46.60 o
  -5  12   5      176.48      181.23     39.60 o
  -3  12   5       15.87       18.11     49.46 o
  -1  12   5       13.24       30.10     53.29 o
   1  12   5      415.87      383.04     40.20 o
   3  12   5      124.96       70.41     43.21 o
   5  12   5      146.44      154.03     41.93 o
   7  12   5       17.90       14.36     46.77 o
   9  12   5       39.27       28.05     54.18 o
 -10  13   5       41.51       50.25     42.35 o
  -8  13   5      106.96      111.17     39.37 o
  -6  13   5       24.59       21.61     42.22 o
  -4  13   5      629.94      618.99     56.53 o
  -2  13   5      146.40      128.75     56.85 o
   0  13   5       34.36       46.16     59.79 o
   2  13   5       10.93        6.84     39.34 o
   4  13   5      310.25      282.24     52.13 o
   6  13   5       76.99       82.98     45.09 o
   8  13   5      156.56      158.94     77.96 o
  -9  14   5       29.97       29.80     43.85 o
  -7  14   5       53.55       61.06     45.71 o
  -5  14   5       38.88       32.50     66.51 o
  -3  14   5        1.71       -0.58     60.92 o
  -1  14   5        0.61        1.75     62.69 o
   1  14   5       85.42      103.57     40.50 o
   3  14   5        8.27       11.41     44.76 o
   5  14   5        0.94        0.29     44.14 o
   7  14   5        3.81        0.29     62.27 o
  -6  15   5      164.05      146.67     67.07 o
  -4  15   5       35.86       32.46     66.80 o
  -2  15   5        2.14       24.19     71.40 o
   0  15   5      190.01      180.97     72.43 o
   2  15   5       97.00      101.00     43.97 o
   4  15   5       29.34       29.07     46.50 o
  -1  16   5      129.62      124.89     83.83 o
 -18   0   6      221.03      257.11     46.46 o
 -16   0   6       82.31       89.99     42.37 o
 -14   0   6      435.03      665.86     98.17 o
 -12   0   6     2292.53     2209.71    156.90 o
 -10   0   6    12748.80    14600.52    471.86 o
  -8   0   6      175.66      231.99     38.86 o
  -6   0   6     2426.67     2003.15    121.79 o
  -4   0   6      602.81      498.16    157.77 o
  -2   0   6    16382.90    14512.87   1367.08 o
   0   0   6     2020.74     2018.05    248.64 o
   2   0   6      314.25      302.98     17.37 o
   4   0   6    32167.36    27516.93   1423.82 o
   6   0   6      663.57      761.70    102.76 o
   8   0   6       25.95       30.97     32.22 o
  10   0   6     2314.73     2471.79     75.51 o
  12   0   6      555.29      550.16     38.80 o
  14   0   6        2.83        3.51     56.10 o
  16   0   6       14.42        8.18     66.62 o
 -17   1   6        2.39        1.82     32.64 o
 -15   1   6        4.63       22.79     33.34 o
 -13   1   6       91.27       89.55     22.09 o
 -11   1   6       50.58       38.86     19.21 o
  -9   1   6      361.64      339.21     30.78 o
  -7   1   6       54.87       64.05      8.26 o
  -5   1   6     3275.87     3278.80    111.94 o
  -3   1   6     6772.01     9325.03    497.57 o
  -1   1   6    21190.32    19949.18   1228.54 o
   1   1   6     1215.79     1097.26     40.95 o
   3   1   6     3407.09     3022.13    187.54 o
   5   1   6       68.54       65.40     17.02 o
   7   1   6     1270.28     1288.72     54.05 o
   9   1   6     1239.12     1165.48     53.22 o
  11   1   6      119.74       87.94     31.24 o
  13   1   6      109.40      122.38     31.42 o
  15   1   6       57.19       55.81     41.96 o
 -18   2   6        0.50        8.95     34.12 o
 -16   2   6      116.52      115.70     32.99 o
 -14   2   6     1103.71     1107.92     37.70 o
 -12   2   6     1871.03     1761.81     64.25 o
 -10   2   6     1748.35     1649.32     82.12 o
  -8   2   6     1235.81     1436.77     87.68 o
  -6   2   6    21211.45    19380.90    646.52 o
  -4   2   6    26525.94    22250.96   1088.05 o
  -2   2   6    19547.39    20168.73    774.92 o
   0   2   6      550.07      620.63     57.88 o
   2   2   6    12119.40    10746.13    562.70 o
   4   2   6     2008.45     2152.42    124.67 o
   6   2   6    14197.38    14518.88    401.20 o
   8   2   6       69.87       82.84     18.06 o
  10   2   6      426.49      389.00     53.61 o
  12   2   6       87.40       85.31     30.29 o
  14   2   6        9.20       18.50     41.40 o
 -17   3   6        1.27        3.44     31.92 o
 -15   3   6       41.59       36.81     36.23 o
 -13   3   6      406.79      608.75     76.21 o
 -11   3   6      787.69      779.81     36.57 o
  -9   3   6       11.43       14.05     13.79 o
  -7   3   6      766.58      745.47     23.49 o
  -5   3   6     3990.00     5451.78    714.53 o
  -3   3   6     3067.25     2808.01    108.51 o
  -1   3   6     3585.82     3231.62    216.52 o
   1   3   6      665.01      825.10     32.84 o
   3   3   6     1484.17     1504.40     37.59 o
   5   3   6    16688.68    15937.81    511.90 o
   7   3   6     1979.99     1723.04     79.70 o
   9   3   6      921.70      876.90    116.33 o
  11   3   6     1086.20     1220.99     88.63 o
  13   3   6      479.88      472.66     38.48 o
  15   3   6        1.52        3.50     36.04 o
 -16   4   6      388.57      385.96     32.31 o
 -14   4   6       89.93       86.78     37.35 o
 -12   4   6      245.81      219.71     31.10 o
 -10   4   6     2149.71     2194.00     65.28 o
  -8   4   6     1750.05     1813.12     57.12 o
  -6   4   6     2248.78     2252.77     46.21 o
  -4   4   6     4710.05     4420.31    190.62 o
  -2   4   6     1946.69     1712.43    127.30 o
   0   4   6     1408.18     1231.60    176.26 o
   2   4   6       85.68      374.86     52.64 o
   4   4   6      572.43      800.85     31.13 o
   6   4   6       31.86      126.62     54.70 o
   8   4   6      773.11     1023.49     94.24 o
  10   4   6       13.18       37.98     44.36 o
  12   4   6       81.10       93.79     44.57 o
  14   4   6        1.25        4.57     40.86 o
 -17   5   6      185.79      206.27     36.52 o
 -15   5   6      330.80      497.43     72.00 o
 -13   5   6       11.43       44.12     36.46 o
 -11   5   6     2501.90     2575.35     78.11 o
  -9   5   6     2476.23     2353.04     31.74 o
  -7   5   6      137.69      142.87     16.24 o
  -5   5   6     7224.09     6730.69    231.41 o
  -3   5   6     3865.53     4074.12    195.01 o
  -1   5   6      326.23      371.06     61.17 o
   1   5   6     6521.62     7461.74    319.15 o
   3   5   6      707.55      593.14     24.66 o
   5   5   6     1005.90     1136.16     60.99 o
   7   5   6       36.91       66.03     31.62 o
   9   5   6     1245.86     1126.92     82.42 o
  11   5   6      399.12      387.71     52.06 o
  13   5   6      187.62      192.54     42.93 o
  15   5   6       41.63       28.63     56.85 o
 -16   6   6       69.46       70.13     35.53 o
 -14   6   6        3.13        1.17     28.20 o
 -12   6   6       38.78       42.66     28.16 o
 -10   6   6       70.78       78.01     20.34 o
  -8   6   6      151.14      145.40     13.54 o
  -6   6   6       92.87       80.60     11.43 o
  -4   6   6     1650.85     1918.60     49.02 o
  -2   6   6      129.12      112.53     12.49 o
   0   6   6      211.70      243.07     29.91 o
   2   6   6      693.62      866.36     47.10 o
   4   6   6        3.55      233.89     44.80 o
   6   6   6     1232.51     1066.44     81.58 o
   8   6   6     3041.42     2906.08    212.32 o
  10   6   6        1.35        2.05     42.18 o
  12   6   6        0.04       -0.58     43.59 o
  14   6   6        6.19       34.18     55.03 o
 -15   7   6        5.39       39.16     33.97 o
 -13   7   6      217.94      268.53     30.11 o
 -11   7   6      286.67      293.63     36.18 o
  -9   7   6      305.24      293.14     13.42 o
  -7   7   6       36.34       26.30     19.85 o
  -5   7   6    11972.87    13271.72    374.76 o
  -3   7   6      210.67      185.33     13.62 o
  -1   7   6     7505.32     7065.93    250.59 o
   1   7   6        0.96       13.87     34.35 o
   3   7   6      877.86      731.79     92.71 o
   5   7   6     2352.61     1942.01    103.82 o
   7   7   6     1810.34     1809.17     61.77 o
   9   7   6       76.60      156.61     49.95 o
  11   7   6      430.98      440.31     61.23 o
  13   7   6       74.06       69.09     50.65 o
 -14   8   6      119.10      112.78     34.81 o
 -12   8   6        9.43        6.81     26.50 o
 -10   8   6      194.34      220.59     21.86 o
  -8   8   6        1.09       34.11     25.24 o
  -6   8   6       84.27      102.56     19.10 o
  -4   8   6      520.46      457.83     30.51 o
  -2   8   6     1047.70      961.38     35.09 o
   0   8   6      147.08      149.59     15.67 o
   2   8   6      460.45      487.05     40.63 o
   4   8   6     3681.12     3376.56    178.19 o
   6   8   6     5846.00     4958.74    285.68 o
   8   8   6       33.10       43.07     36.63 o
  10   8   6      133.24      164.79     51.24 o
  12   8   6      130.42      140.24     58.56 o
 -15   9   6        4.63       39.15     40.18 o
 -13   9   6      399.11      686.02     60.26 o
 -11   9   6      367.77      380.70     31.38 o
  -9   9   6       11.27        7.07     22.46 o
  -7   9   6        0.34       16.95     32.53 o
  -5   9   6     1861.99     1667.44     53.94 o
  -3   9   6       98.41      448.42     51.25 o
  -1   9   6       77.54       61.50     28.06 o
   1   9   6        2.88       20.74     24.43 o
   3   9   6     6047.64     5434.67    109.93 o
   5   9   6     2550.05     2586.40     73.42 o
   7   9   6      106.52      131.56     27.75 o
   9   9   6      223.96      213.16     49.42 o
  11   9   6      800.55      870.26     82.11 o
  13   9   6       33.45       42.66     59.04 o
 -14  10   6        6.29        1.46     45.21 o
 -12  10   6      175.78      180.64     32.35 o
 -10  10   6       67.58       57.38     25.48 o
  -8  10   6      194.87      217.51     48.75 o
  -6  10   6      414.57      453.75     31.58 o
  -4  10   6     1617.68     1826.58     62.35 o
  -2  10   6      657.74      603.25     64.87 o
   0  10   6      590.47      654.18     74.38 o
   2  10   6       42.80       34.91     27.42 o
   4  10   6       66.35       49.23     39.49 o
   6  10   6     1540.43     1749.32     78.30 o
   8  10   6      721.83      789.65    126.55 o
  10  10   6        3.74       13.45     56.13 o
  12  10   6       16.35       12.69     62.61 o
 -13  11   6       23.98       32.83     39.47 o
 -11  11   6       69.93       76.26     63.40 o
  -9  11   6      236.06      233.45     44.70 o
  -7  11   6       48.23       51.77     34.77 o
  -5  11   6      108.10      118.62     38.24 o
  -3  11   6      128.23      140.96     57.94 o
  -1  11   6      528.90      570.62     51.36 o
   1  11   6        5.20       40.61     39.67 o
   3  11   6       48.28       49.38     37.35 o
   5  11   6      444.14      431.25     44.21 o
   7  11   6      327.83      332.63     40.77 o
   9  11   6       67.29       87.74     60.77 o
  11  11   6       15.85       14.02     56.18 o
 -12  12   6        4.65        9.06     57.56 o
 -10  12   6      142.85      164.24     42.07 o
  -8  12   6       46.01       51.42     50.37 o
  -6  12   6        0.00       -0.50     32.04 o
  -4  12   6        8.95        5.64     51.31 o
  -2  12   6       22.85        9.35     67.89 o
   0  12   6        7.67        7.60     54.45 o
   2  12   6       13.11       19.28     35.69 o
   4  12   6      765.99      872.97    119.13 o
   6  12   6      146.30      120.67     49.61 o
   8  12   6        7.30        8.66     49.95 o
  10  12   6       13.12       22.60     62.28 o
 -11  13   6       51.42       42.66     55.22 o
  -9  13   6       51.57       38.52     40.41 o
  -7  13   6      170.48      155.83     42.47 o
  -5  13   6      290.81      294.15     60.55 o
  -3  13   6       39.51       47.37     59.81 o
  -1  13   6       49.64       38.27     67.75 o
   1  13   6       29.06       33.31     43.50 o
   3  13   6       13.19       11.80     42.43 o
   5  13   6        3.45       15.08     43.48 o
   7  13   6       64.25       54.77     66.81 o
  -8  14   6       14.12       10.16     66.87 o
  -6  14   6       40.43       34.48     66.55 o
  -4  14   6       62.50       48.12     61.22 o
  -2  14   6       17.66       14.09     61.77 o
   0  14   6      494.02      487.35     79.18 o
   2  14   6       25.12       26.57     40.96 o
   4  14   6       75.11       87.42     43.90 o
   6  14   6        0.65       12.65     49.94 o
  -5  15   6       28.13       36.39     67.20 o
  -3  15   6       55.24       62.53     66.40 o
  -1  15   6      154.64      126.51     74.98 o
   1  15   6       12.60       37.70     71.58 o
   3  15   6       14.26       16.39     45.75 o
 -18   1   7       87.55      100.22     34.44 o
 -16   1   7       37.56       54.93     45.38 o
 -14   1   7      144.54      138.49     24.68 o
 -12   1   7       67.32       59.60     31.07 o
 -10   1   7     3412.21     2764.26    194.00 o
  -8   1   7       80.14       73.78     11.59 o
  -6   1   7      870.40     1099.09     37.90 o
  -4   1   7    32570.57    30968.56   2084.78 o
  -2   1   7    28718.77    26967.45   1589.77 o
   0   1   7       12.34       10.81     19.16 o
   2   1   7     5099.18     4602.33    155.60 o
   4   1   7     9039.02     9522.10    274.87 o
   6   1   7       30.12       84.44     22.89 o
   8   1   7      109.03      132.77     16.66 o
  10   1   7      641.12      576.75     31.85 o
  12   1   7      427.99      444.40     35.08 o
  14   1   7       56.28       61.34     44.63 o
 -17   2   7       32.13       36.83     36.87 o
 -15   2   7       85.10       82.39     36.77 o
 -13   2   7      943.66     1127.50     56.37 o
 -11   2   7       38.42       54.34     19.99 o
  -9   2   7     3842.62     3266.31    150.65 o
  -7   2   7      719.76      620.29     20.92 o
  -5   2   7     6089.55     9561.35    268.50 o
  -3   2   7      165.80      226.14     29.80 o
  -1   2   7    11468.13    10389.59    577.62 o
   1   2   7     2547.09     2453.18     58.13 o
   3   2   7      737.40      676.68     15.63 o
   5   2   7      424.84      400.09     11.95 o
   7   2   7       27.75       35.94     14.01 o
   9   2   7     1273.15     1197.33     57.83 o
  11   2   7      566.23      548.12     34.25 o
  13   2   7      185.95      149.39     46.12 o
  15   2   7       14.58        9.37     46.58 o
 -18   3   7        7.03        8.04     33.98 o
 -16   3   7       16.68       11.55     29.13 o
 -14   3   7      107.80      120.96     32.54 o
 -12   3   7     1652.47     1584.39     56.18 o
 -10   3   7      305.40      297.87     40.60 o
  -8   3   7     4482.15     4086.95    148.02 o
  -6   3   7        2.55       33.89     22.53 o
  -4   3   7     2217.22     1968.51    121.91 o
  -2   3   7      445.80      357.04     24.32 o
   0   3   7       71.92       71.29     16.81 o
   2   3   7    11524.44    10399.42    285.27 o
   4   3   7     1128.38      890.78    117.20 o
   6   3   7     1593.20     1556.25    102.37 o
   8   3   7     4010.76     3849.87    144.97 o
  10   3   7     2316.19     2204.62    102.22 o
  12   3   7       34.72       38.59     33.16 o
  14   3   7        4.34        5.54     34.46 o
 -17   4   7       44.79       54.34     31.48 o
 -15   4   7      330.02      314.38     35.01 o
 -13   4   7      484.56      542.17     82.10 o
 -11   4   7     1213.78     1389.00     59.80 o
  -9   4   7      100.81      102.26     27.41 o
  -7   4   7      402.45      665.10    111.80 o
  -5   4   7       22.47       36.34     16.97 o
  -3   4   7    43730.77    38534.44   1621.16 o
  -1   4   7       11.04      265.99     61.04 o
   1   4   7     2238.88     2141.17    140.30 o
   3   4   7    14174.96    12769.89    380.28 o
   5   4   7      745.55      709.07     21.09 o
   7   4   7      653.85      679.25     18.18 o
   9   4   7        2.43        1.17     39.10 o
  11   4   7       79.57       86.48     43.72 o
  13   4   7      171.33      176.77     45.72 o
  15   4   7       96.87       89.41     46.56 o
 -16   5   7       15.76       26.20     27.79 o
 -14   5   7      144.22      133.82     33.74 o
 -12   5   7      229.41      246.59     18.74 o
 -10   5   7     1390.89     1263.07     50.77 o
  -8   5   7     2257.47     2062.34     35.31 o
  -6   5   7       77.46      121.84     21.81 o
  -4   5   7     2552.11     2178.20     22.66 o
  -2   5   7      370.66      383.44      9.82 o
   0   5   7     2593.66     2225.63    144.19 o
   2   5   7     1013.05      846.51    113.87 o
   4   5   7     1089.40     1065.45     21.87 o
   6   5   7     3556.35     3482.18     97.73 o
   8   5   7      160.99      130.82     34.35 o
  10   5   7      134.44      144.04     46.69 o
  12   5   7       40.89       34.15     43.46 o
  14   5   7       99.18       84.28     53.28 o
 -17   6   7        0.89       -0.58     31.71 o
 -15   6   7        5.31       10.52     29.11 o
 -13   6   7     1464.49     1600.14     50.28 o
 -11   6   7       23.31       30.32     18.03 o
  -9   6   7       40.04       21.91     24.81 o
  -7   6   7      237.84      468.11     30.21 o
  -5   6   7     2588.49     2416.10     55.73 o
  -3   6   7       62.71       49.22     22.06 o
  -1   6   7     1118.55     1020.85     70.51 o
   1   6   7     7965.91     8250.08    230.61 o
   3   6   7     5445.31     4732.78    146.83 o
   5   6   7       87.81       80.98     21.46 o
   7   6   7     2142.91     1602.08    189.93 o
   9   6   7      476.43      473.91     41.37 o
  11   6   7      170.26      198.47     41.87 o
  13   6   7       75.72       99.92     55.69 o
 -16   7   7        0.92        5.42     32.93 o
 -14   7   7      351.32      330.16     39.85 o
 -12   7   7      318.21      307.47     24.00 o
 -10   7   7      246.64      234.32     19.58 o
  -8   7   7     2202.36     2356.50     31.95 o
  -6   7   7      344.62      312.66     19.00 o
  -4   7   7     5083.66     4313.86    178.91 o
  -2   7   7     3577.77     2942.24    166.65 o
   0   7   7      172.44      175.40     19.30 o
   2   7   7      368.84      508.38     53.38 o
   4   7   7      148.31      138.54     22.79 o
   6   7   7       61.83       51.69     27.16 o
   8   7   7      777.09      880.24     64.45 o
  10   7   7        8.42       11.69     43.16 o
  12   7   7        0.04       16.88     54.29 o
 -15   8   7        0.04        2.20     32.07 o
 -13   8   7       19.72       17.43     29.41 o
 -11   8   7        4.30        8.47     23.75 o
  -9   8   7     1035.90      982.51     31.73 o
  -7   8   7      186.73      154.81     33.93 o
  -5   8   7     1072.12     1001.61     30.58 o
  -3   8   7     7188.93     6536.21    207.07 o
  -1   8   7     1627.43     1517.09     63.11 o
   1   8   7      582.26      562.72     24.85 o
   3   8   7     3533.56     3379.57     61.18 o
   5   8   7      479.86      515.85     31.61 o
   7   8   7      798.42      839.57     64.65 o
   9   8   7      236.51      209.58     47.29 o
  11   8   7        0.02       21.90     56.61 o
  13   8   7       27.31       35.49     55.83 o
 -14   9   7       46.27       29.80     35.92 o
 -12   9   7      206.05      226.81     29.67 o
 -10   9   7      234.83      198.97     30.96 o
  -8   9   7       13.52        9.65     18.28 o
  -6   9   7      208.74      176.47     24.50 o
  -4   9   7      891.62      980.83     88.31 o
  -2   9   7     2522.49     2697.39    132.83 o
   0   9   7        2.27       15.49     23.60 o
   2   9   7     1073.49     1161.58     53.29 o
   4   9   7       13.70       16.43     31.39 o
   6   9   7      227.97      551.26     56.84 o
   8   9   7        3.34       19.87     47.23 o
  10   9   7      157.42      159.82     58.85 o
  12   9   7       14.06       10.81     56.74 o
 -13  10   7        0.89        3.21     35.79 o
 -11  10   7       16.35       20.21     26.12 o
  -9  10   7      213.69      196.78     27.79 o
  -7  10   7      349.19      403.78     34.92 o
  -5  10   7      536.83      522.82     40.72 o
  -3  10   7     1659.52     1540.75     83.73 o
  -1  10   7     1502.29     1514.34     66.73 o
   1  10   7      653.02      657.68     33.85 o
   3  10   7     1752.90     1832.38     67.91 o
   5  10   7      269.58      308.95     32.68 o
   7  10   7      383.69      387.33     33.65 o
   9  10   7      289.72      291.70     64.55 o
  11  10   7      107.78       99.34     63.22 o
 -12  11   7       99.79       93.20     52.01 o
 -10  11   7        0.59       -0.29     38.14 o
  -8  11   7       10.45       13.36     32.00 o
  -6  11   7      123.30       97.88     38.75 o
  -4  11   7      211.98      160.83     72.94 o
  -2  11   7      377.62      376.06     60.35 o
   0  11   7      217.71      228.61     52.88 o
   2  11   7      167.32      196.14     40.21 o
   4  11   7       91.55      118.87     30.61 o
   6  11   7      112.32       76.55     42.58 o
   8  11   7        7.17        1.76     43.75 o
  10  11   7       67.47       66.62     61.97 o
 -11  12   7       60.83       63.40     56.68 o
  -9  12   7       12.14       19.87     37.51 o
  -7  12   7        0.77        9.69     37.47 o
  -5  12   7        1.88        4.35     55.01 o
  -3  12   7       40.43       26.30     51.51 o
  -1  12   7       19.85       37.11     59.53 o
   1  12   7     1487.50     1717.69     61.53 o
   3  12   7      100.67       91.47     41.97 o
   5  12   7       19.26       10.30     42.71 o
   7  12   7        6.59       16.65     66.56 o
   9  12   7      239.24      230.82     68.70 o
 -10  13   7        0.06        0.55     44.15 o
  -8  13   7      178.36      151.09     41.09 o
  -6  13   7       91.08      112.19     60.02 o
  -4  13   7      663.19      675.40     61.94 o
  -2  13   7        7.47       18.99     54.46 o
   0  13   7       15.93       30.81     73.68 o
   2  13   7        1.49        4.46     39.49 o
   4  13   7      359.10      369.06     48.05 o
   6  13   7        0.03       30.65     51.30 o
   8  13   7        2.86       18.67     66.41 o
  -9  14   7      106.61       95.25     92.03 o
  -7  14   7       74.81       65.74     59.61 o
  -5  14   7       63.68       43.53     59.90 o
  -3  14   7       52.81       55.81     61.86 o
  -1  14   7        0.03       -0.58     63.40 o
   1  14   7       59.00       59.02     64.49 o
   3  14   7        0.70        0.35     44.44 o
   5  14   7        0.25       -0.58     43.01 o
  -6  15   7        7.41       26.88     69.99 o
  -4  15   7        7.77       24.62     68.36 o
  -2  15   7       81.30       57.64     75.54 o
   0  15   7       10.71       25.85     73.03 o
   2  15   7       83.95      108.98     41.31 o
 -18   0   8      230.79      194.59     57.27 o
 -16   0   8      150.59      126.80     51.71 o
 -14   0   8      131.91      135.28     63.40 o
 -12   0   8     1590.56     1572.48    132.35 o
 -10   0   8     6207.01     5394.12    127.10 o
  -8   0   8        0.70       50.84     40.07 o
  -6   0   8       77.68       81.81     27.55 o
  -4   0   8       51.09       57.85     45.87 o
  -2   0   8     8785.14     7667.52   1025.82 o
   0   0   8    39050.21    34496.11   2443.45 o
   2   0   8      925.14      950.28    126.22 o
   4   0   8      262.33      450.53     56.93 o
   6   0   8     6769.02     7157.97    235.64 o
   8   0   8     4190.97     3772.55    166.60 o
  10   0   8      958.58      884.25     80.20 o
  12   0   8      631.96      894.64    111.90 o
  14   0   8        0.46       -0.58     62.23 o
 -17   1   8       74.90       86.43     32.04 o
 -15   1   8      692.48      935.25     51.85 o
 -13   1   8      454.45      428.75     45.01 o
 -11   1   8       83.34       71.80     23.83 o
  -9   1   8     1251.92     1215.67     52.20 o
  -7   1   8      843.18      987.90     46.22 o
  -5   1   8    30694.59    27842.14   1260.22 o
  -3   1   8      857.13      950.44     88.11 o
  -1   1   8     3279.83     2965.58    187.69 o
   1   1   8     8311.61     7313.37    286.96 o
   3   1   8    14762.20    15666.60    410.05 o
   5   1   8      572.25      805.82     35.71 o
   7   1   8        1.29        0.41     12.28 o
   9   1   8       14.75       10.82     26.63 o
  11   1   8      894.97     1084.90     59.60 o
  13   1   8      209.41      236.37     49.89 o
  15   1   8       64.02       77.53     52.24 o
 -18   2   8       55.33       53.47     47.81 o
 -16   2   8        0.68        0.29     26.03 o
 -14   2   8      210.14      205.98     25.82 o
 -12   2   8     3416.79     3132.67    129.64 o
 -10   2   8     1606.60     1558.47     78.20 o
  -8   2   8       59.90       65.15     31.03 o
  -6   2   8     9342.04     8663.30    129.93 o
  -4   2   8     2159.00     2094.45    200.19 o
  -2   2   8     1924.17     1943.25     82.54 o
   0   2   8     1861.99     1794.62     50.78 o
   2   2   8     5591.43     7679.71    221.25 o
   4   2   8     2429.24     2508.66     50.41 o
   6   2   8      519.72      792.76     41.39 o
   8   2   8       33.70       28.34     31.36 o
  10   2   8      278.29      617.85     52.21 o
  12   2   8        5.88        3.81     30.60 o
  14   2   8        2.34        3.51     45.34 o
 -17   3   8      141.78      111.76     42.97 o
 -15   3   8       18.27       17.53     24.98 o
 -13   3   8     1158.86     1146.49     59.97 o
 -11   3   8      557.52      516.27     30.82 o
  -9   3   8      116.90      113.02     13.17 o
  -7   3   8     5804.98     5199.47    175.47 o
  -5   3   8     3827.39     3662.08     94.46 o
  -3   3   8     1369.22     1267.51     46.34 o
  -1   3   8    25195.70    25327.51    977.26 o
   1   3   8    14015.39    15623.65    406.14 o
   3   3   8       79.80      191.37     32.77 o
   5   3   8     1101.35     1039.68     20.74 o
   7   3   8     6086.24     5276.92    141.82 o
   9   3   8     1542.89     1639.10     59.20 o
  11   3   8      133.51      137.41     36.42 o
  13   3   8      111.89       95.77     34.10 o
  15   3   8      111.47       89.41     66.03 o
 -16   4   8       85.74       82.10     30.49 o
 -14   4   8       69.62       59.31     28.97 o
 -12   4   8      125.88      121.96     27.37 o
 -10   4   8      233.61      307.07     26.82 o
  -8   4   8      371.33      425.41     54.30 o
  -6   4   8     1481.65     1615.61     58.38 o
  -4   4   8      506.44      500.49     17.20 o
  -2   4   8      322.12      392.10     45.50 o
   0   4   8     4034.42     3297.24    147.18 o
   2   4   8     4583.64     5913.16    255.70 o
   4   4   8      155.50      169.92     16.14 o
   6   4   8       42.19      118.32     52.33 o
   8   4   8       56.64       56.97     32.47 o
  10   4   8        4.51        4.47     29.84 o
  12   4   8        4.03        3.51     39.64 o
  14   4   8       22.43       20.53     48.09 o
 -17   5   8        7.99        4.92     26.29 o
 -15   5   8        0.86       -0.58     27.45 o
 -13   5   8      439.22      560.39     49.72 o
 -11   5   8      634.62      595.74     34.55 o
  -9   5   8       61.07       85.61     54.02 o
  -7   5   8     1621.84     1451.82     61.58 o
  -5   5   8     6389.59     6518.05    795.39 o
  -3   5   8        5.02       35.94     22.63 o
  -1   5   8      942.73      961.76     32.53 o
   1   5   8     2903.80     2668.14     46.67 o
   3   5   8      618.87      638.76     19.86 o
   5   5   8      603.11      540.88     32.03 o
   7   5   8     2104.92     2152.70     65.33 o
   9   5   8     1621.94     1493.30     88.82 o
  11   5   8        4.81        3.21     44.00 o
  13   5   8       74.40       72.17     54.42 o
 -16   6   8        7.55        1.92     29.26 o
 -14   6   8       34.82       26.59     23.24 o
 -12   6   8        0.03       -0.58     22.39 o
 -10   6   8      352.68      302.04     25.67 o
  -8   6   8      229.28      224.36     16.45 o
  -6   6   8      817.31      913.55     43.25 o
  -4   6   8     1417.99     1181.91     71.16 o
  -2   6   8     2608.69     2120.09    124.82 o
   0   6   8     1638.45     1794.66     68.55 o
   2   6   8      199.43      216.79     28.08 o
   4   6   8      249.76      269.67     22.31 o
   6   6   8     2824.59     2182.25    166.00 o
   8   6   8      351.54      319.81     45.84 o
  10   6   8       49.74       80.35     50.05 o
  12   6   8       16.50       21.62     48.33 o
  14   6   8        0.02        0.32     50.97 o
 -15   7   8       42.45       53.47     40.60 o
 -13   7   8      299.72      310.00     33.40 o
 -11   7   8      253.74      250.10     27.95 o
  -9   7   8       14.83       66.03     16.96 o
  -7   7   8      972.99      846.61     25.17 o
  -5   7   8     4172.09     3944.81     50.55 o
  -3   7   8      279.07      258.57     18.67 o
  -1   7   8       83.06      136.70     38.18 o
   1   7   8     2424.69     2379.08     86.85 o
   3   7   8       50.85       85.31     28.62 o
   5   7   8      445.35      448.10     26.84 o
   7   7   8     1866.62     1707.90     86.26 o
   9   7   8       32.49       31.03     43.24 o
  11   7   8      111.27      127.35     52.14 o
  13   7   8       38.44       25.71     52.87 o
 -14   8   8       20.19       18.03     30.88 o
 -12   8   8       20.09       21.97     30.15 o
 -10   8   8      621.81      664.56     18.95 o
  -8   8   8      341.48      313.21     22.30 o
  -6   8   8     1359.03     1213.16     41.47 o
  -4   8   8      399.66      408.76     15.63 o
  -2   8   8       27.13       83.14     59.18 o
   0   8   8      983.47     1060.30     30.20 o
   2   8   8        2.86       24.77     26.23 o
   4   8   8      339.03      618.24     61.00 o
   6   8   8     1352.02     1672.77     63.94 o
   8   8   8      127.78      140.04     40.01 o
  10   8   8        1.61       23.38     54.78 o
  12   8   8        1.38       17.39     58.53 o
 -15   9   8       16.70       13.73     31.63 o
 -13   9   8      241.10      235.59     31.48 o
 -11   9   8      721.13      713.20     45.96 o
  -9   9   8      270.67      278.44     18.78 o
  -7   9   8     1710.61     1579.20     33.22 o
  -5   9   8     2486.73     2102.72     84.39 o
  -3   9   8      231.26      255.23     48.94 o
  -1   9   8     7600.38     7076.63    200.97 o
   1   9   8     1888.78     1794.46     39.68 o
   3   9   8        6.03       31.46     34.34 o
   5   9   8       73.59       86.63     31.87 o
   7   9   8      913.37     1103.10    106.91 o
   9   9   8      208.77      212.12     50.50 o
  11   9   8        0.22       -0.58     56.61 o
 -14  10   8      216.11      208.26     34.28 o
 -12  10   8      398.65      361.13     43.90 o
 -10  10   8      232.15      205.95     26.56 o
  -8  10   8        8.94        4.67     35.69 o
  -6  10   8     6163.72     5701.19    195.72 o
  -4  10   8      141.66      107.23     74.50 o
  -2  10   8      560.90      588.88     87.11 o
   0  10   8       40.41      100.94     57.32 o
   2  10   8     2689.76     2430.23     70.28 o
   4  10   8      533.79      565.94     37.81 o
   6  10   8       67.68       64.28     42.61 o
   8  10   8      148.44      171.88     51.94 o
  10  10   8       91.33       91.74     59.61 o
 -13  11   8        3.65        6.43     49.67 o
 -11  11   8      160.10      159.23     42.07 o
  -9  11   8       61.13       84.86     42.09 o
  -7  11   8      519.87      504.58     38.28 o
  -5  11   8      581.97      587.27     61.31 o
  -3  11   8     1545.46     1548.52     78.92 o
  -1  11   8      243.44      240.59     61.55 o
   1  11   8      598.39      613.69     42.44 o
   3  11   8       12.64       19.92     28.10 o
   5  11   8      360.21      330.16     44.39 o
   7  11   8       24.52       52.01     49.19 o
   9  11   8      182.49      139.24     72.86 o
 -12  12   8       83.56       77.13     53.47 o
 -10  12   8      391.10      405.25     44.67 o
  -8  12   8      223.93      218.93     36.23 o
  -6  12   8        3.16       10.81     48.63 o
  -4  12   8       81.69      114.82     51.24 o
  -2  12   8      353.33      369.45     57.03 o
   0  12   8      867.28     1064.39     87.39 o
   2  12   8      119.36      116.29     35.80 o
   4  12   8      111.87      110.15     47.57 o
   6  12   8      939.15     1160.81     73.50 o
   8  12   8      309.82      289.38     62.62 o
  -9  13   8       10.51        9.93     71.00 o
  -7  13   8      137.27      141.32     59.35 o
  -5  13   8       14.24       21.62     52.77 o
  -3  13   8       23.52       11.69     56.16 o
  -1  13   8       11.36        6.83     62.19 o
   1  13   8       16.26       21.38     60.54 o
   3  13   8       51.97       49.90     40.66 o
   5  13   8        0.16       -0.58     45.40 o
   7  13   8      111.44      110.75     66.69 o
  -8  14   8       19.16       47.05     64.69 o
  -6  14   8      197.20      228.19     69.17 o
  -4  14   8      374.59      396.86     60.10 o
  -2  14   8        8.88       20.20     63.25 o
   0  14   8      367.89      396.19     73.97 o
   2  14   8       22.96       31.26     38.55 o
   4  14   8      107.87      103.92     48.99 o
  -5  15   8        4.40        4.38     58.48 o
  -3  15   8       36.57       37.11     71.67 o
  -1  15   8       21.69       12.71     73.13 o
   1  15   8      160.98      132.46     69.08 o
   3  15   8       16.25       14.90     45.02 o
 -18   1   9       18.30       24.25     39.73 o
 -16   1   9       28.45       34.03     27.65 o
 -14   1   9       34.47       54.81     26.61 o
 -12   1   9     2441.23     2035.14    220.75 o
 -10   1   9       40.85       15.19     29.89 o
  -8   1   9    10177.16    11110.92    285.56 o
  -6   1   9     3193.90     2873.53    117.54 o
  -4   1   9     1311.75     1405.36     56.50 o
  -2   1   9    17034.26    14796.43   1199.51 o
   0   1   9     2236.58     2256.46    153.81 o
   2   1   9     1377.04     1238.61     96.14 o
   4   1   9      638.01      829.46     57.26 o
   6   1   9      683.35      658.49     25.84 o
   8   1   9      267.59      266.41     34.04 o
  10   1   9       44.98       58.43     34.76 o
  12   1   9        0.39       19.36     48.42 o
  14   1   9       83.24       81.13     52.06 o
 -17   2   9        6.65        2.77     30.68 o
 -15   2   9       94.59       94.64     27.98 o
 -13   2   9     1596.67     1392.76     59.18 o
 -11   2   9      854.38      804.50     37.27 o
  -9   2   9     4726.48     4328.78    121.38 o
  -7   2   9       65.73       52.01     12.18 o
  -5   2   9     1808.04     2020.97     36.50 o
  -3   2   9    24289.80    23883.42    820.61 o
  -1   2   9     4164.48     3630.41    213.00 o
   1   2   9      771.12      649.96     28.22 o
   3   2   9     2261.76     2275.79     56.56 o
   5   2   9     5415.52     4884.91    112.99 o
   7   2   9        0.04       25.74     20.05 o
   9   2   9     1238.83     1114.44     92.45 o
  11   2   9       63.12       63.99     32.70 o
  13   2   9       15.56       15.05     48.45 o
 -16   3   9      126.60      111.90     44.83 o
 -14   3   9       63.20       80.35     23.36 o
 -12   3   9       96.11      153.39     40.88 o
 -10   3   9       55.39       67.20     39.96 o
  -8   3   9      155.62      180.55     19.16 o
  -6   3   9       80.41       70.71     30.95 o
  -4   3   9     8307.47     7177.84    389.47 o
  -2   3   9     2979.10     2583.45    195.02 o
   0   3   9      184.05      181.44     48.40 o
   2   3   9     9689.47    10838.08    294.55 o
   4   3   9     3146.19     2710.79    152.93 o
   6   3   9        3.43        3.30     18.06 o
   8   3   9     2197.56     1999.72    112.90 o
  10   3   9      368.71      368.14     34.33 o
  12   3   9        1.13        0.29     34.11 o
  14   3   9        5.08        1.17     70.71 o
 -17   4   9       43.43       49.06     32.62 o
 -15   4   9     1100.21     1387.53     56.61 o
 -13   4   9        5.30        7.33     23.23 o
 -11   4   9      250.67      231.83     18.33 o
  -9   4   9     4827.54     4603.10    108.67 o
  -7   4   9    13303.54    12162.28    239.93 o
  -5   4   9      245.34      274.64     30.03 o
  -3   4   9      737.53      675.58     42.84 o
  -1   4   9    18655.02    19393.93   1341.96 o
   1   4   9     6202.55     5754.56    116.05 o
   3   4   9      777.83      718.39     19.99 o
   5   4   9       14.67       49.88     20.06 o
   7   4   9      411.85      501.77     38.10 o
   9   4   9        0.01       30.19     33.66 o
  11   4   9        2.04        1.17     38.43 o
  13   4   9       32.26       52.22     50.27 o
 -16   5   9       23.16       49.28     34.19 o
 -14   5   9       51.80       51.88     24.71 o
 -12   5   9      150.37      139.66     23.85 o
 -10   5   9       18.16       41.78     24.89 o
  -8   5   9     4344.65     3803.69     43.53 o
  -6   5   9       14.91       44.20     20.82 o
  -4   5   9     3321.78     3218.96     94.51 o
  -2   5   9     1087.44     1239.69     73.12 o
   0   5   9      665.35      688.96     24.68 o
   2   5   9      338.21      319.52     36.59 o
   4   5   9      858.00      846.75     24.75 o
   6   5   9      695.62      686.40     41.59 o
   8   5   9        0.03       -0.39     32.47 o
  10   5   9        1.74       -0.29     43.08 o
  12   5   9       10.82       13.16     48.18 o
  14   5   9       29.15       29.33     53.57 o
 -15   6   9      221.06      225.43     26.93 o
 -13   6   9      587.03      613.57     24.57 o
 -11   6   9       85.22      391.65    204.38 o
  -9   6   9     2601.46     2595.47     43.42 o
  -7   6   9      965.12     1173.96     43.55 o
  -5   6   9       47.85      206.86     42.02 o
  -3   6   9     7636.82     7145.96    263.28 o
  -1   6   9     4976.40     4354.29    273.31 o
   1   6   9     1284.35     1111.67     70.53 o
   3   6   9      141.39      129.01     25.70 o
   5   6   9     2407.53     2429.35    109.87 o
   7   6   9      595.82      602.75     46.05 o
   9   6   9      712.87      816.84    128.12 o
  11   6   9        0.87        2.03     47.50 o
  13   6   9       13.22        9.35     50.92 o
 -16   7   9      246.77      229.94     31.34 o
 -14   7   9        4.94        6.72     24.49 o
 -12   7   9      129.52      129.68     21.32 o
 -10   7   9        7.91       23.04     17.17 o
  -8   7   9     4669.43     4303.31     59.09 o
  -6   7   9       33.65       53.72     17.09 o
  -4   7   9      185.48      165.95     25.10 o
  -2   7   9      677.11      674.69     20.30 o
   0   7   9     4220.61     4274.15     59.13 o
   2   7   9        3.18        4.08     22.65 o
   4   7   9      147.64      141.94     26.68 o
   6   7   9      125.80      137.61     28.91 o
   8   7   9      128.06      164.51     38.50 o
  10   7   9        0.27       -0.58     46.17 o
  12   7   9        4.97        5.37     55.09 o
 -15   8   9      243.35      244.13     33.40 o
 -13   8   9      423.69      413.44     28.31 o
 -11   8   9       31.32       86.04     32.11 o
  -9   8   9     2125.82     2069.13     44.90 o
  -7   8   9     1421.51     1395.56     56.25 o
  -5   8   9      972.10      964.47     19.56 o
  -3   8   9      101.63      134.72     39.46 o
  -1   8   9     1905.80     1863.88     79.39 o
   1   8   9     1017.08      964.47     37.79 o
   3   8   9     1540.22     1437.78     89.13 o
   5   8   9        5.49        7.31     32.27 o
   7   8   9        0.82        3.55     34.91 o
   9   8   9       24.58       20.22     50.67 o
  11   8   9      213.23      190.36     78.33 o
 -14   9   9       90.19       94.86     28.00 o
 -12   9   9       30.71       45.42     24.92 o
 -10   9   9      417.32      413.43     30.06 o
  -8   9   9      457.08      460.17     23.77 o
  -6   9   9      175.81      190.09     27.10 o
  -4   9   9     1528.36     1529.53     66.21 o
  -2   9   9     2285.83     2347.19    140.30 o
   0   9   9      636.17      649.66     52.64 o
   2   9   9       62.48      435.54     51.14 o
   4   9   9      175.57      207.44     32.11 o
   6   9   9      707.80      699.96     54.31 o
   8   9   9        0.07       -0.58     44.68 o
  10   9   9      126.38       97.72     70.08 o
 -13  10   9      263.20      215.76     37.28 o
 -11  10   9      535.35      539.49     27.35 o
  -9  10   9      242.12      252.37     29.13 o
  -7  10   9      875.57      907.20     34.12 o
  -5  10   9        1.96       19.58     68.33 o
  -3  10   9      426.49      397.36     64.22 o
  -1  10   9     1300.38     1403.18     87.53 o
   1  10   9        5.74       24.70     27.86 o
   3  10   9      994.83      931.94     45.62 o
   5  10   9      365.79      542.63    102.22 o
   7  10   9      174.43      147.26     54.79 o
   9  10   9      101.04      104.97     61.60 o
 -12  11   9        0.02        4.67     41.20 o
 -10  11   9       87.39      111.03     36.05 o
  -8  11   9      296.61      292.24     45.44 o
  -6  11   9      780.68      749.13     66.33 o
  -4  11   9      484.82      498.52     60.08 o
  -2  11   9     1061.09      963.01     95.17 o
   0  11   9        0.04        7.01     62.18 o
   2  11   9       48.44       49.44     42.46 o
   4  11   9      328.71      328.99     45.39 o
   6  11   9       11.38        9.35     36.48 o
   8  11   9      208.22      147.38     66.40 o
 -11  12   9       57.37       52.59     44.12 o
  -9  12   9       38.89       35.18     37.89 o
  -7  12   9       33.55       28.17     50.45 o
  -5  12   9        6.13        5.63     53.16 o
  -3  12   9      335.80      344.31     57.78 o
  -1  12   9      956.24     1248.30     87.31 o
   1  12   9       22.89       26.30     35.58 o
   3  12   9        5.89       18.69     43.12 o
   5  12   9      241.25      185.31     53.27 o
   7  12   9        0.98        0.63     49.30 o
 -10  13   9      122.24      137.61     71.87 o
  -8  13   9      645.27      647.46     73.84 o
  -6  13   9      203.37      197.51     52.10 o
  -4  13   9       10.61        1.75     53.78 o
  -2  13   9      354.46      367.55     70.18 o
   0  13   9      108.00      105.19     62.33 o
   2  13   9      140.63      158.33     39.02 o
   4  13   9       45.39       35.73     43.53 o
   6  13   9        3.52        2.04     50.29 o
  -7  14   9       65.53       62.82     62.13 o
  -5  14   9       58.32       63.17     63.32 o
  -3  14   9      302.03      298.02     63.26 o
  -1  14   9       72.56       57.56     64.67 o
   1  14   9        6.42        1.59     66.10 o
   3  14   9        4.58        7.95     41.99 o
   5  14   9       20.90       25.36     50.04 o
  -4  15   9       39.41       34.48     63.08 o
  -2  15   9       62.36       70.05     71.05 o
   0  15   9        6.93        4.38     70.44 o
 -18   0  10       22.53       32.43     49.96 o
 -16   0  10      598.34      573.25     66.62 o
 -14   0  10     2626.04     2745.85     91.74 o
 -12   0  10     2975.05     2589.54    243.38 o
 -10   0  10     2552.53     2303.79    241.92 o
  -8   0  10      196.54      398.23     88.14 o
  -6   0  10     4666.88     4427.31    212.41 o
  -4   0  10     8932.04    10941.04    860.74 o
  -2   0  10     7962.10     8540.54    674.05 o
   0   0  10    12919.52    12261.67    919.76 o
   2   0  10    27202.68    23729.33   1336.54 o
   4   0  10      971.06     1097.41    101.74 o
   6   0  10     3669.92     3419.21    159.65 o
   8   0  10      299.27      336.00     56.39 o
  10   0  10      814.85      899.60    113.95 o
  12   0  10      111.73       68.95     92.91 o
  14   0  10        3.32       -0.58     71.29 o
 -17   1  10       49.38       50.84     31.77 o
 -15   1  10        5.43        1.17     24.75 o
 -13   1  10      149.01      142.00     28.58 o
 -11   1  10     1805.73     1697.57     81.81 o
  -9   1  10      948.93      850.52     27.21 o
  -7   1  10        0.96        0.16     12.14 o
  -5   1  10      188.23      181.95     18.95 o
  -3   1  10      312.81      359.08     21.28 o
  -1   1  10      158.62      180.80     22.24 o
   1   1  10      932.95      856.57     65.60 o
   3   1  10       19.78       25.13     21.66 o
   5   1  10     1863.28     1605.15    104.51 o
   7   1  10     1934.18     1861.34    108.64 o
   9   1  10      116.43      140.83     34.83 o
  11   1  10       60.55       67.20     48.74 o
  13   1  10       51.99       48.50     46.48 o
 -18   2  10      190.72      215.82     37.06 o
 -16   2  10      464.17      426.57     48.82 o
 -14   2  10       97.74       98.74     26.15 o
 -12   2  10     2318.56     2333.59     72.20 o
 -10   2  10     9471.94     8584.52    233.84 o
  -8   2  10      237.85      240.62     19.16 o
  -6   2  10     5690.57     5085.69    164.24 o
  -4   2  10      692.33      817.80     89.56 o
  -2   2  10     1145.33     1185.35     62.39 o
   0   2  10      816.16      829.77     27.08 o
   2   2  10     2709.62     2947.83     53.10 o
   4   2  10      728.96      652.27     17.19 o
   6   2  10      316.83      262.59     53.63 o
   8   2  10      198.60      146.28     62.24 o
  10   2  10        5.05       35.73     38.25 o
  12   2  10      130.30      134.40     45.55 o
  14   2  10       33.12       19.87     53.98 o
 -17   3  10      522.43      472.15     53.69 o
 -15   3  10       69.20       85.46     28.20 o
 -13   3  10       33.12       68.66     26.63 o
 -11   3  10     1153.33     1454.04     47.41 o
  -9   3  10     2212.15     1927.11     54.40 o
  -7   3  10      163.27      188.65     24.50 o
  -5   3  10      949.57      959.79     25.84 o
  -3   3  10     3257.74     2956.51     85.31 o
  -1   3  10     7026.23     8756.16    981.70 o
   1   3  10      604.81      731.73    127.19 o
   3   3  10        0.68       10.52     16.27 o
   5   3  10      177.61      196.58     22.05 o
   7   3  10      124.05      150.00     21.71 o
   9   3  10      101.61       93.20     36.30 o
  11   3  10       65.23       60.48     38.44 o
  13   3  10       84.47       94.46     52.73 o
 -16   4  10      219.98      230.23     36.72 o
 -14   4  10       23.02       37.81     28.66 o
 -12   4  10      555.50      506.48     36.35 o
 -10   4  10      457.12      578.50     97.25 o
  -8   4  10      141.85      145.84     16.76 o
  -6   4  10     2031.43     1959.61     86.77 o
  -4   4  10      652.02      676.08     55.65 o
  -2   4  10     9927.31     8723.22    276.40 o
   0   4  10       26.77       31.85     28.00 o
   2   4  10      226.11      175.01     30.72 o
   4   4  10        0.84       28.63     30.78 o
   6   4  10      907.82      890.73     28.01 o
   8   4  10      717.17      612.10     82.60 o
  10   4  10        1.72        4.67     36.10 o
  12   4  10        1.19        3.21     44.22 o
 -17   5  10      190.26      183.49     41.09 o
 -15   5  10      104.17      121.25     26.95 o
 -13   5  10       33.01       66.91     31.91 o
 -11   5  10     1675.34     1550.13     67.86 o
  -9   5  10      153.22      129.45     33.84 o
  -7   5  10      121.21      406.46     90.89 o
  -5   5  10     1640.55     1466.21     60.16 o
  -3   5  10      171.99      433.84     49.39 o
  -1   5  10     8912.21    10832.94    397.35 o
   1   5  10        1.52       -0.58     18.19 o
   3   5  10       33.06       44.09     22.02 o
   5   5  10     1008.08     1055.99     63.02 o
   7   5  10     1180.12     1055.33     46.37 o
   9   5  10      237.31      425.11     79.86 o
  11   5  10      106.31      129.14     47.79 o
  13   5  10       22.95       21.62     47.61 o
 -16   6  10        3.19        1.46     31.31 o
 -14   6  10       52.95       45.87     27.43 o
 -12   6  10      272.97      254.05     36.15 o
 -10   6  10        0.09        9.64     24.38 o
  -8   6  10     1219.75      991.35     77.79 o
  -6   6  10      208.15      184.06     20.86 o
  -4   6  10       28.52       52.08     20.84 o
  -2   6  10      175.31      188.45     16.06 o
   0   6  10        6.94       42.95     49.24 o
   2   6  10      129.39      277.06     50.02 o
   4   6  10      411.06      345.64     39.70 o
   6   6  10      131.44       94.13     38.50 o
   8   6  10       17.09       13.07     39.44 o
  10   6  10        0.25        1.02     48.65 o
  12   6  10       15.49       12.15     56.22 o
 -15   7  10        1.95        3.51     26.31 o
 -13   7  10        0.33       11.39     31.80 o
 -11   7  10      941.86      904.46     29.56 o
  -9   7  10      906.85      858.35     28.74 o
  -7   7  10      514.22      376.61     55.23 o
  -5   7  10       27.32       56.39     17.73 o
  -3   7  10     2113.50     1863.72    128.49 o
  -1   7  10      300.12      266.84     52.12 o
   1   7  10      383.73      351.78     32.91 o
   3   7  10      247.11      264.28     25.26 o
   5   7  10      352.81      380.70     27.56 o
   7   7  10      119.06       99.63     46.10 o
   9   7  10      101.75      123.30     52.03 o
  11   7  10      322.84      315.55     56.38 o
 -14   8  10       24.93       41.66     28.26 o
 -12   8  10      285.80      290.83     25.47 o
 -10   8  10       59.98       64.69     20.53 o
  -8   8  10     1349.61     1264.17     20.04 o
  -6   8  10      126.65      156.47     54.60 o
  -4   8  10     1015.47     1075.38     46.31 o
  -2   8  10     2087.47     1999.86    148.70 o
   0   8  10       16.35       62.98     36.95 o
   2   8  10      760.07      804.79     29.24 o
   4   8  10        1.27        3.80     36.73 o
   6   8  10      193.98      163.25     45.46 o
   8   8  10       10.09       33.20     44.05 o
  10   8  10      130.12      129.14     64.84 o
 -13   9  10      117.93      132.25     24.12 o
 -11   9  10      199.04      214.85     26.99 o
  -9   9  10      458.38      443.23     25.83 o
  -7   9  10      254.74      248.11     35.30 o
  -5   9  10     6950.83     6209.52    249.88 o
  -3   9  10        2.55        4.03     46.99 o
  -1   9  10        1.72        1.25     46.92 o
   1   9  10      296.06      584.06     52.45 o
   3   9  10     3050.55     2616.11    120.00 o
   5   9  10       61.74       73.04     38.64 o
   7   9  10      188.74      227.31     49.78 o
   9   9  10       79.36       76.55     64.96 o
  11   9  10       66.93       57.79     62.37 o
 -14  10  10       77.67       75.63     31.55 o
 -12  10  10      248.11      268.51     27.48 o
 -10  10  10      837.31      829.77     40.86 o
  -8  10  10      470.07      401.00     60.97 o
  -6  10  10      358.20      294.51     75.93 o
  -4  10  10        0.89       24.83     64.02 o
  -2  10  10      169.22      202.18     53.00 o
   0  10  10      141.74      137.16     72.41 o
   2  10  10      209.89      219.93     33.83 o
   4  10  10        7.01       12.24     35.58 o
   6  10  10      342.23      305.70     51.47 o
   8  10  10        3.19        2.13     50.53 o
  10  10  10        0.19        0.29     57.81 o
 -13  11  10       43.57       31.85     42.37 o
 -11  11  10       18.53       20.74     34.77 o
  -9  11  10      609.73      573.41     42.95 o
  -7  11  10        8.02        1.88     55.74 o
  -5  11  10      147.30      129.43     57.60 o
  -3  11  10      421.35      584.32     92.60 o
  -1  11  10     1193.58     1292.58     98.54 o
   1  11  10      593.88      592.15     79.94 o
   3  11  10      206.49      221.76     36.32 o
   5  11  10       81.65       86.77     39.26 o
   7  11  10      444.58      524.68    130.76 o
   9  11  10        9.40        9.35     59.53 o
 -10  12  10       35.75       46.16     65.74 o
  -8  12  10      161.34      106.94     65.93 o
  -6  12  10        9.01       43.83     64.81 o
  -4  12  10       22.29       34.19     58.99 o
  -2  12  10      154.73      133.07     68.16 o
   0  12  10      349.56      286.62     80.77 o
   2  12  10       36.73       60.92     45.14 o
   4  12  10       30.42       35.96     44.51 o
   6  12  10      213.32      225.67     41.64 o
   8  12  10      101.94      118.62     58.02 o
  -9  13  10      489.24      477.70     94.08 o
  -7  13  10        0.13       -0.58     55.78 o
  -5  13  10        4.97       13.91     58.08 o
  -3  13  10        3.35       17.37     62.53 o
  -1  13  10        1.82        2.53     67.29 o
   1  13  10       33.92       36.23     70.23 o
   3  13  10       25.93       42.37     48.07 o
   5  13  10       12.06       18.51     46.76 o
  -8  14  10        6.30        0.99     64.74 o
  -6  14  10        0.71        3.54     61.45 o
  -4  14  10        1.49       -0.58     56.43 o
  -2  14  10       46.04       23.70     67.39 o
   0  14  10       54.82       46.85     66.46 o
   2  14  10        0.15        1.17     63.12 o
   4  14  10       56.70       57.65     49.53 o
  -3  15  10        1.06        4.51     67.11 o
  -1  15  10       17.02       36.97     78.21 o
 -18   1  11       56.67       65.28     35.39 o
 -16   1  11      368.67      594.72    193.57 o
 -14   1  11       34.81       40.70     23.51 o
 -12   1  11       33.83       24.67     21.98 o
 -10   1  11     2394.69     2439.42     95.87 o
  -8   1  11     1927.25     2100.16     40.88 o
  -6   1  11      813.06      687.63     63.52 o
  -4   1  11    15461.36    13500.06    603.58 o
  -2   1  11       49.87       64.28     29.01 o
   0   1  11     1880.20     1735.22     44.93 o
   2   1  11      707.37      628.38     17.72 o
   4   1  11     2370.44     2299.51     24.77 o
   6   1  11        6.06       25.04     20.87 o
   8   1  11     1044.92     1043.90     46.42 o
  10   1  11     1609.31     1459.12    129.43 o
  12   1  11      351.59      324.46     57.83 o
 -17   2  11       22.49       22.86     32.27 o
 -15   2  11       72.78      100.51     28.25 o
 -13   2  11      486.82      440.89     43.43 o
 -11   2  11      958.93      821.33     58.98 o
  -9   2  11        0.01        3.80     21.49 o
  -7   2  11     4199.33     3518.46    121.41 o
  -5   2  11        2.58        3.21     22.94 o
  -3   2  11      183.23      194.93     21.57 o
  -1   2  11     5511.69     7711.76   2290.35 o
   1   2  11     2206.87     2080.92     80.19 o
   3   2  11       11.03       22.21     19.34 o
   5   2  11     1699.68     1626.16     47.73 o
   7   2  11       37.01       28.22     22.82 o
   9   2  11       15.23       19.19     35.53 o
  11   2  11       62.79       66.01     47.55 o
  13   2  11        0.04        0.29     51.54 o
 -16   3  11       14.10       48.21     37.70 o
 -14   3  11      115.21      121.50     25.08 o
 -12   3  11      431.55      416.64     30.74 o
 -10   3  11     1711.51     1795.62     98.23 o
  -8   3  11      145.23      150.69     25.42 o
  -6   3  11      999.73      946.72     22.51 o
  -4   3  11     1988.71     1900.88     55.45 o
  -2   3  11    12628.16    14414.55    469.80 o
   0   3  11     4146.43     4612.70    460.40 o
   2   3  11     1993.88     2141.23     52.80 o
   4   3  11     6436.79     5717.68    160.20 o
   6   3  11      454.86      463.90     19.92 o
   8   3  11      409.27      383.71     34.64 o
  10   3  11      199.80      190.50     40.38 o
  12   3  11      166.07      159.82     49.75 o
 -17   4  11      118.02       96.71     42.13 o
 -15   4  11       41.74       42.66     25.27 o
 -13   4  11      437.51      405.54     39.45 o
 -11   4  11      493.61      490.56     20.07 o
  -9   4  11     3472.86     3041.05    144.83 o
  -7   4  11       15.62       31.31     18.90 o
  -5   4  11     2970.88     2556.98    151.62 o
  -3   4  11        5.63       23.41     34.55 o
  -1   4  11       40.01       31.83     33.37 o
   1   4  11       87.89      179.69     47.28 o
   3   4  11      883.34      929.41     36.42 o
   5   4  11       88.84       86.30     29.34 o
   7   4  11       26.26       14.32     26.28 o
   9   4  11     1065.59     1269.79     73.31 o
  11   4  11        0.42        0.75     46.46 o
  13   4  11       83.80       55.51     81.81 o
 -16   5  11       24.48       27.74     29.82 o
 -14   5  11        3.39        4.67     27.28 o
 -12   5  11      861.47      834.45     29.70 o
 -10   5  11     2463.71     2583.03     60.03 o
  -8   5  11     1847.90     2061.00     47.62 o
  -6   5  11      206.44      188.45     21.46 o
  -4   5  11      302.99      316.72     21.64 o
  -2   5  11       62.53       56.89     37.73 o
   0   5  11     4223.41     4111.92    102.92 o
   2   5  11      881.90     1084.96     41.17 o
   4   5  11     1523.92     1381.98     45.24 o
   6   5  11      443.78      451.18     29.99 o
   8   5  11      361.91      345.93     80.64 o
  10   5  11      240.07      228.77     55.41 o
  12   5  11       64.48       44.71     52.78 o
 -15   6  11       31.08       32.72     36.77 o
 -13   6  11      144.28      169.75     37.14 o
 -11   6  11      167.95      131.77     28.24 o
  -9   6  11      429.38      393.64     34.64 o
  -7   6  11     1608.72     1479.06     99.34 o
  -5   6  11     3553.13     3545.77     71.72 o
  -3   6  11     3764.63     3614.07    146.96 o
  -1   6  11      114.54      155.55     53.61 o
   1   6  11     1027.63     1110.93    111.53 o
   3   6  11     2235.54     2181.48     57.85 o
   5   6  11     1910.97     2083.84     54.36 o
   7   6  11      301.31      339.96     34.44 o
   9   6  11       87.83      104.31     54.12 o
  11   6  11      297.79      310.87     58.05 o
 -16   7  11        8.65        8.47     23.94 o
 -14   7  11       79.23       73.34     24.81 o
 -12   7  11      641.49      656.52     25.62 o
 -10   7  11      175.84      169.17     30.65 o
  -8   7  11       73.82       77.03     23.38 o
  -6   7  11     1073.13      967.99     31.28 o
  -4   7  11     2685.25     2685.66     52.96 o
  -2   7  11      314.82      300.06     49.32 o
   0   7  11      659.20      622.92     58.81 o
   2   7  11      125.43      155.97     25.92 o
   4   7  11      294.59      294.10     35.37 o
   6   7  11       10.25       17.53     29.44 o
   8   7  11       40.07       34.95     48.33 o
  10   7  11       47.08       30.00     58.18 o
  12   7  11        1.36        0.29     55.16 o
 -15   8  11        1.30       -0.29     28.74 o
 -13   8  11      411.40      337.46     44.32 o
 -11   8  11      209.12      227.31     27.58 o
  -9   8  11       10.43       10.74     15.07 o
  -7   8  11        0.98       16.22     24.68 o
  -5   8  11      127.80      101.62     36.65 o
  -3   8  11       17.11       26.30     39.00 o
  -1   8  11       61.10      311.17     70.45 o
   1   8  11      260.08      245.88     25.51 o
   3   8  11     2282.68     2345.23     99.64 o
   5   8  11       30.04       65.07     38.54 o
   7   8  11       41.59       56.49     55.76 o
   9   8  11      402.31      393.85     69.26 o
  11   8  11        2.95        3.51     57.36 o
 -14   9  11       12.30        7.20     28.28 o
 -12   9  11       26.42       33.44     24.49 o
 -10   9  11       35.12       41.49     28.12 o
  -8   9  11      264.18      278.78     26.60 o
  -6   9  11     1455.56     1547.98    112.02 o
  -4   9  11       13.50       12.92     50.25 o
  -2   9  11      214.07      531.46     79.89 o
   0   9  11      252.07      232.28     64.57 o
   2   9  11      148.72      135.86     41.41 o
   4   9  11      236.13      266.17     36.16 o
   6   9  11        0.24        1.28     34.56 o
   8   9  11       16.51        9.93     53.09 o
  10   9  11        2.60        4.77     59.14 o
 -13  10  11      285.92      281.07     30.99 o
 -11  10  11       30.05       62.23     36.52 o
  -9  10  11       63.49       54.34     26.13 o
  -7  10  11      281.68      293.85     88.47 o
  -5  10  11      730.73     1003.81     85.28 o
  -3  10  11      164.13      143.38     57.57 o
  -1  10  11       28.19       34.68     55.17 o
   1  10  11      569.39      533.22     47.31 o
   3  10  11        0.82        9.69     32.54 o
   5  10  11        0.06       -0.27     36.01 o
   7  10  11       21.27       34.73     51.73 o
   9  10  11       24.47       17.53     56.16 o
 -12  11  11        1.25        3.51     38.57 o
 -10  11  11        0.77        0.88     28.46 o
  -8  11  11      282.46      262.96     59.56 o
  -6  11  11        3.50       22.33     67.52 o
  -4  11  11      166.09      158.94     57.55 o
  -2  11  11      144.57      154.57     56.48 o
   0  11  11      348.25      256.48     90.63 o
   2  11  11      177.21      182.23     32.13 o
   4  11  11      178.94      177.08     37.11 o
   6  11  11      130.76       84.66     53.22 o
   8  11  11        2.16        0.29     63.50 o
  -9  12  11      132.86      118.91     73.63 o
  -7  12  11       42.30       36.71     60.29 o
  -5  12  11       41.10       37.98     53.84 o
  -3  12  11      300.03      302.11     60.73 o
  -1  12  11       48.23       56.81     67.85 o
   1  12  11       66.78       47.62     69.51 o
   3  12  11      130.57      123.30     55.35 o
   5  12  11       16.08       18.01     38.74 o
   7  12  11       10.67       24.30     51.86 o
  -8  13  11       19.53       21.62     57.24 o
  -6  13  11       62.12       54.75     60.73 o
  -4  13  11        2.00        2.85     57.85 o
  -2  13  11        3.68        6.72     66.42 o
   0  13  11       24.93       36.07     67.89 o
   2  13  11       54.39       84.48     69.00 o
   4  13  11       20.56       24.89     49.81 o
  -7  14  11        9.06       16.65     60.43 o
  -5  14  11        3.09        3.73     58.69 o
  -3  14  11       69.90       58.61     62.70 o
  -1  14  11      142.22      167.71     74.96 o
   1  14  11      141.04      119.94     73.51 o
   3  14  11       10.33       12.32     47.04 o
 -16   0  12       24.99       75.97     52.88 o
 -14   0  12      192.40      196.93     35.06 o
 -12   0  12      740.79      795.88     78.01 o
 -10   0  12      410.82      641.93    178.96 o
  -8   0  12     1414.94     1380.00     20.79 o
  -6   0  12      851.42      815.75     28.34 o
  -4   0  12     4551.63     4369.75    216.50 o
  -2   0  12     2677.55     2463.90    333.37 o
   0   0  12     8228.79     8294.82    506.34 o
   2   0  12    12401.01    11642.47    682.07 o
   4   0  12       64.21       70.41     27.30 o
   6   0  12        0.76        2.33     32.36 o
   8   0  12        1.60        4.97     61.06 o
  10   0  12      517.38      600.13    118.33 o
  12   0  12      158.66      134.40     74.80 o
 -17   1  12        0.44        0.29     29.12 o
 -15   1  12      184.43      148.27     37.65 o
 -13   1  12      114.10      123.88     28.90 o
 -11   1  12      366.59      404.95     49.06 o
  -9   1  12     1658.67     1520.83     30.60 o
  -7   1  12     1407.19     1620.98     50.27 o
  -5   1  12     2425.24     2099.50     76.31 o
  -3   1  12     6153.79     5307.64    232.22 o
  -1   1  12        4.03       32.72     36.25 o
   1   1  12     2215.27     2118.26    101.75 o
   3   1  12     6081.47     6194.66    277.62 o
   5   1  12       87.11       91.16     16.91 o
   7   1  12      678.50      584.41     40.02 o
   9   1  12       55.97       57.48     43.68 o
  11   1  12      222.17      237.25     56.65 o
  13   1  12        0.14       -0.58     53.04 o
 -16   2  12       55.90       78.01     35.17 o
 -14   2  12      279.58      267.34     42.46 o
 -12   2  12     3610.57     3542.32     95.00 o
 -10   2  12      800.05      748.98     14.84 o
  -8   2  12      800.56      701.01    102.58 o
  -6   2  12     3513.22     3337.07    179.43 o
  -4   2  12     1801.76     1714.51     31.48 o
  -2   2  12     1892.52     1806.22     25.81 o
   0   2  12     4861.01     4536.59    173.03 o
   2   2  12      380.52      346.52     24.39 o
   4   2  12     1044.83      982.77     31.55 o
   6   2  12      901.06      901.53     28.47 o
   8   2  12       29.84       27.02     29.54 o
  10   2  12      186.11      185.96     65.88 o
  12   2  12      166.57      149.30     58.34 o
 -17   3  12       40.83       32.59     33.61 o
 -15   3  12      132.16      119.64     40.25 o
 -13   3  12       46.43       44.81     26.55 o
 -11   3  12        0.06        3.21     21.61 o
  -9   3  12     7222.18     6102.50    265.12 o
  -7   3  12     1198.81     1235.87     39.76 o
  -5   3  12     4395.47     6015.04    391.40 o
  -3   3  12        4.79       15.49     35.32 o
  -1   3  12      755.89      919.15     61.15 o
   1   3  12     1937.51     2122.45     45.95 o
   3   3  12     1018.66     1021.72     56.70 o
   5   3  12       25.62       42.07     30.90 o
   7   3  12      911.66      793.66     44.14 o
   9   3  12      154.92      156.19     34.03 o
  11   3  12       61.49       56.68     45.96 o
  13   3  12        1.61        1.17     73.34 o
 -16   4  12        0.13       -0.20     30.39 o
 -14   4  12       94.66      113.91     24.87 o
 -12   4  12        3.68        3.11     24.48 o
 -10   4  12       22.13       23.37     19.49 o
  -8   4  12      245.61      229.76     17.55 o
  -6   4  12     1698.17     1560.50     27.77 o
  -4   4  12       39.82       44.70     35.35 o
  -2   4  12      933.53     1194.12     79.47 o
   0   4  12     1028.41     1014.43     66.62 o
   2   4  12     1248.87     1167.82     28.77 o
   4   4  12      446.90      391.22     28.62 o
   6   4  12      275.97      374.17     38.60 o
   8   4  12       27.34       41.77     33.77 o
  10   4  12       23.80       22.08     43.50 o
  12   4  12       25.21       23.08     71.00 o
 -15   5  12      120.45      119.36     43.46 o
 -13   5  12      222.29      214.89     27.58 o
 -11   5  12       11.13       24.27     24.91 o
  -9   5  12      160.53      369.73     35.57 o
  -7   5  12      526.20      483.79     24.63 o
  -5   5  12     3137.07     3061.74     66.44 o
  -3   5  12      386.23      361.13     35.35 o
  -1   5  12     4288.97     3857.45    186.47 o
   1   5  12     8008.94     7294.75    337.07 o
   3   5  12       23.07       58.43     33.91 o
   5   5  12      203.17      297.55     48.33 o
   7   5  12      639.46      600.80     47.29 o
   9   5  12       25.73       29.07     42.37 o
  11   5  12       92.59       86.12     53.20 o
 -16   6  12       95.04      120.38     37.27 o
 -14   6  12       26.74       27.47     27.25 o
 -12   6  12        6.18        1.91     22.80 o
 -10   6  12        4.94        3.69     21.50 o
  -8   6  12      422.07      501.06    103.43 o
  -6   6  12       52.44       47.96     22.76 o
  -4   6  12     1178.43     1084.13     97.25 o
  -2   6  12      692.29      956.50     74.38 o
   0   6  12      268.47      268.12     43.74 o
   2   6  12        0.86       -0.29     22.89 o
   4   6  12        5.91        9.29     31.45 o
   6   6  12      479.98      667.07    115.42 o
   8   6  12        7.02       14.32     47.00 o
  10   6  12        6.36        6.72     45.98 o
  12   6  12       57.66       49.67     59.88 o
 -15   7  12      278.54      253.31     39.76 o
 -13   7  12      340.68      332.49     27.24 o
 -11   7  12      565.21      525.33     36.13 o
  -9   7  12       12.04      239.17     44.24 o
  -7   7  12      108.30      113.88     46.00 o
  -5   7  12     4444.33     4094.93    122.41 o
  -3   7  12     1680.79     1742.98    120.35 o
  -1   7  12     2384.98     2602.06     79.73 o
   1   7  12     1119.26     1110.87     29.92 o
   3   7  12       41.92       48.12     29.83 o
   5   7  12        9.17       12.83     29.91 o
   7   7  12      530.81      575.28     48.81 o
   9   7  12       68.51       43.83     64.12 o
  11   7  12        6.36        3.44     56.90 o
 -14   8  12        1.30        1.22     24.46 o
 -12   8  12        6.89        5.84     22.31 o
 -10   8  12      331.89      346.45     17.16 o
  -8   8  12       75.93       71.55     20.16 o
  -6   8  12     4750.72     3985.55    198.96 o
  -4   8  12      538.66      458.42     74.54 o
  -2   8  12      595.26      559.68     62.60 o
   0   8  12      218.20      212.12     64.61 o
   2   8  12     4103.93     3607.41    136.52 o
   4   8  12       56.38       48.30     32.18 o
   6   8  12      327.15      525.32    114.20 o
   8   8  12      125.71      114.61     54.03 o
  10   8  12       47.68       48.50     62.13 o
 -13   9  12       31.55       62.23     29.52 o
 -11   9  12        0.27        1.17     21.19 o
  -9   9  12       49.26       52.33     20.94 o
  -7   9  12      952.90      900.35     78.42 o
  -5   9  12     1223.63     1283.23     77.40 o
  -3   9  12      201.53      164.79     69.32 o
  -1   9  12        0.01       -0.22     49.01 o
   1   9  12       62.57       53.60     48.12 o
   3   9  12        8.39       47.55     32.72 o
   5   9  12       40.65       63.11     39.45 o
   7   9  12       49.51       56.96     47.48 o
   9   9  12        0.70       19.88     57.35 o
 -12  10  12      143.77      128.85     31.55 o
 -10  10  12      272.70      260.47     24.41 o
  -8  10  12      111.54      101.38     58.81 o
  -6  10  12       19.02       32.83     65.36 o
  -4  10  12      857.19      837.24     64.90 o
  -2  10  12      455.83      437.40     54.34 o
   0  10  12     1835.41     1745.30    113.60 o
   2  10  12        1.61        0.29     27.80 o
   4  10  12       61.99       94.33     33.06 o
   6  10  12      221.10      225.97     47.15 o
   8  10  12      133.13      132.65     66.52 o
  -9  11  12      214.04      208.89     60.01 o
  -7  11  12      185.34      170.63     69.57 o
  -5  11  12        0.22        0.29     60.13 o
  -3  11  12      100.67       91.74     56.32 o
  -1  11  12       83.20       67.54     63.12 o
   1  11  12       16.07       19.79     62.33 o
   3  11  12      144.56      160.60     39.07 o
   5  11  12        6.75        3.55     37.12 o
   7  11  12       95.69      104.01     58.28 o
 -10  12  12        0.19        0.29     62.23 o
  -8  12  12        3.88       23.08     66.66 o
  -6  12  12      569.13      536.63     74.86 o
  -4  12  12      213.30      207.43     66.67 o
  -2  12  12       31.81       42.66     64.78 o
   0  12  12       32.63       51.60     64.78 o
   2  12  12      697.21      685.73     92.01 o
   4  12  12       60.03       58.45     52.15 o
   6  12  12       19.48       11.69     47.44 o
  -9  13  12       68.88       60.19     84.15 o
  -7  13  12       76.88       68.08    113.95 o
  -5  13  12       25.61       26.30     60.57 o
  -3  13  12        0.05        0.29     60.92 o
  -1  13  12       15.06       14.57     69.21 o
   1  13  12        6.42        4.38     71.07 o
   3  13  12       74.54       70.03     47.53 o
  -6  14  12      180.90      198.97     60.08 o
  -4  14  12        0.33        1.32     65.99 o
  -2  14  12      110.66      120.95     72.23 o
   0  14  12      146.85      164.49     81.74 o
 -16   1  13       48.52       62.08     27.48 o
 -14   1  13     1020.46     1020.26     37.69 o
 -12   1  13       34.13       92.62     43.18 o
 -10   1  13       14.70       33.89     26.82 o
  -8   1  13     6653.23     6127.18    175.07 o
  -6   1  13     1173.82     1074.91     40.60 o
  -4   1  13        8.61        2.34     36.67 o
  -2   1  13     2015.03     1763.85     70.73 o
   0   1  13       99.88       89.99     37.29 o
   2   1  13     1875.41     1700.45    149.70 o
   4   1  13      362.83      351.78     22.86 o
   6   1  13        0.03        3.03     26.17 o
   8   1  13      504.27      475.66     56.27 o
  10   1  13        2.94        3.14     50.23 o
  12   1  13        2.70       -0.58     52.06 o
 -17   2  13       40.31       32.71     35.51 o
 -15   2  13      311.59      332.20     34.49 o
 -13   2  13        6.24        5.55     27.69 o
 -11   2  13        2.23        2.05     21.38 o
  -9   2  13      569.79      550.39     29.53 o
  -7   2  13     3276.67     3312.78     61.17 o
  -5   2  13     2376.99     2065.08    128.09 o
  -3   2  13        4.28        6.14     26.13 o
  -1   2  13     1386.58     1533.94     70.03 o
   1   2  13       95.11      166.83     26.08 o
   3   2  13      742.67      758.48     43.03 o
   5   2  13       22.89       22.22     21.26 o
   7   2  13       37.69       32.75     23.44 o
   9   2  13        5.59        3.51     42.97 o
  11   2  13        0.01       -0.58     48.54 o
 -16   3  13      211.23      230.53     31.49 o
 -14   3  13      152.97      142.02     40.39 o
 -12   3  13       82.62       84.44     38.12 o
 -10   3  13      921.37      959.43     16.52 o
  -8   3  13     2212.53     2262.01     69.28 o
  -6   3  13     1256.68     1567.33     41.96 o
  -4   3  13       89.39       86.35     30.66 o
  -2   3  13     6678.70     9053.60    325.18 o
   0   3  13     2157.06     2028.56    121.27 o
   2   3  13      247.96      425.79     52.39 o
   4   3  13      211.98      190.21     25.86 o
   6   3  13       49.10       48.43     23.03 o
   8   3  13       10.67        7.60     30.94 o
  10   3  13       21.00       13.81     45.46 o
  12   3  13        0.46        1.17     67.78 o
 -17   4  13      160.08      147.84     45.21 o
 -15   4  13      276.30      269.97     40.48 o
 -13   4  13      840.43      793.98     44.93 o
 -11   4  13      614.74      609.46     22.21 o
  -9   4  13      897.47      936.71     50.16 o
  -7   4  13     1595.58     1333.81     75.72 o
  -5   4  13      314.56      325.03     26.27 o
  -3   4  13     1373.92     1355.55     36.32 o
  -1   4  13       59.12       61.94     33.88 o
   1   4  13      948.42      855.05     98.33 o
   3   4  13       14.96       15.36     22.60 o
   5   4  13     2745.45     2657.95    107.95 o
   7   4  13      143.43      161.64     33.79 o
   9   4  13      302.81      290.71     49.13 o
  11   4  13       16.25        9.93     62.53 o
 -16   5  13      214.57      183.49     37.30 o
 -14   5  13      208.53      202.33     27.47 o
 -12   5  13      400.14      407.03     27.22 o
 -10   5  13      658.07      574.05     31.66 o
  -8   5  13      108.54       97.26     20.85 o
  -6   5  13       47.97       89.99     31.29 o
  -4   5  13     6660.84     5852.25    357.33 o
  -2   5  13      179.38      321.20     88.48 o
   0   5  13      466.85      458.98     38.36 o
   2   5  13       82.35       85.61     38.98 o
   4   5  13     1614.58     1614.33     76.68 o
   6   5  13        0.22       19.64     35.43 o
   8   5  13      324.43      319.05     57.99 o
  10   5  13        0.68        4.22     47.17 o
 -15   6  13      249.37      236.74     32.65 o
 -13   6  13      213.36      218.42     28.90 o
 -11   6  13      187.60      197.80     22.31 o
  -9   6  13     4373.24     3973.42    112.17 o
  -7   6  13     6604.90     6193.67    184.16 o
  -5   6  13      454.56      395.70     80.10 o
  -3   6  13      366.79      523.58    101.93 o
  -1   6  13     1267.46     1193.53     72.51 o
   1   6  13      607.14      593.99     53.18 o
   3   6  13       12.62       37.84     30.09 o
   5   6  13       84.88       98.55     28.96 o
   7   6  13      122.70      109.57     37.88 o
   9   6  13       98.14       98.41     48.62 o
  11   6  13       11.24        7.40     56.10 o
 -14   7  13      205.08      196.93     39.12 o
 -12   7  13      206.56      215.02     26.85 o
 -10   7  13        0.71        0.42     20.50 o
  -8   7  13      321.74      279.32     26.43 o
  -6   7  13      159.88      179.89     26.88 o
  -4   7  13      154.47      163.30     25.31 o
  -2   7  13       15.05       13.44     42.96 o
   0   7  13     1255.62     1275.92     99.73 o
   2   7  13      157.64      117.45     76.36 o
   4   7  13      188.63      133.40     48.47 o
   6   7  13       68.70       72.51     37.85 o
   8   7  13      161.98      140.24     54.95 o
  10   7  13        4.95        0.80     54.40 o
 -15   8  13       42.16       47.33     27.30 o
 -13   8  13      260.58      256.53     26.11 o
 -11   8  13        6.06        6.91     22.55 o
  -9   8  13      692.35      618.36     22.47 o
  -7   8  13        5.94        7.43     30.10 o
  -5   8  13       51.80       46.16     71.94 o
  -3   8  13       95.82       93.52     46.29 o
  -1   8  13      191.20      188.54     63.10 o
   1   8  13     1211.09     1168.90     77.40 o
   3   8  13       29.46       41.20     32.90 o
   5   8  13      302.49      312.96     58.32 o
   7   8  13       12.15       16.30     42.02 o
   9   8  13      144.23      140.83     54.96 o
 -14   9  13      210.75      181.25     35.33 o
 -12   9  13       22.80       31.55     23.99 o
 -10   9  13        9.72       16.57     19.84 o
  -8   9  13     1298.69     1176.58     83.14 o
  -6   9  13        4.33       11.32     53.26 o
  -4   9  13      214.51      217.96     50.72 o
  -2   9  13        1.25       42.95     59.42 o
   0   9  13       10.06       34.96     53.18 o
   2   9  13      359.02      325.19     41.11 o
   4   9  13       67.44       50.85     36.67 o
   6   9  13        1.18        0.66     38.03 o
   8   9  13       18.60        9.06     53.83 o
 -13  10  13      160.00      153.10     32.72 o
 -11  10  13       95.21      117.45     31.17 o
  -9  10  13       83.79       59.07     65.76 o
  -7  10  13        7.97        6.85     55.31 o
  -5  10  13        0.34       12.90     52.85 o
  -3  10  13       90.74       89.26     54.80 o
  -1  10  13        6.18        2.63     54.62 o
   1  10  13      137.84      171.61     61.23 o
   3  10  13        5.12       39.05     35.65 o
   5  10  13        9.55        8.27     37.40 o
   7  10  13      294.47      261.74     62.00 o
 -10  11  13      144.87      141.70     66.62 o
  -8  11  13      863.27      870.97     78.83 o
  -6  11  13      186.26      222.64     59.12 o
  -4  11  13       60.51       72.46     69.72 o
  -2  11  13      124.76      149.80     69.59 o
   0  11  13      302.64      319.30     61.46 o
   2  11  13      670.53      659.44    106.49 o
   4  11  13        9.13       10.12     36.08 o
   6  11  13        2.26       10.64     49.58 o
  -9  12  13        0.92        1.28     63.56 o
  -7  12  13        1.52        8.23     65.90 o
  -5  12  13       44.46       34.03     67.20 o
  -3  12  13       17.19       27.14     68.80 o
  -1  12  13        6.00        8.00     74.93 o
   1  12  13        3.07       13.02     73.80 o
   3  12  13       18.67       13.51     47.00 o
   5  12  13       33.55       54.62     41.69 o
  -8  13  13       74.69       70.89     68.13 o
  -6  13  13       80.82       81.93     66.95 o
  -4  13  13       50.90       63.11     67.87 o
  -2  13  13       13.75       12.56     68.59 o
   0  13  13       52.18       87.94     82.90 o
   2  13  13        0.73        0.29     72.86 o
  -3  14  13        3.69        0.47     69.54 o
  -1  14  13      133.83      123.88     75.67 o
 -16   0  14       50.82       50.55     53.18 o
 -14   0  14       96.12       96.42     66.32 o
 -12   0  14      132.35      160.70     44.12 o
 -10   0  14     3164.66     2981.76     93.01 o
  -8   0  14     1450.43     1501.48     59.07 o
  -6   0  14     3117.11     2732.41    345.06 o
  -4   0  14      693.08      940.22    121.54 o
  -2   0  14      497.25      479.46     75.09 o
   0   0  14     4917.75     4932.48    236.95 o
   2   0  14      237.02      258.73     31.31 o
   4   0  14      389.91      382.46     38.02 o
   6   0  14      180.84      160.70     37.06 o
   8   0  14       36.78       23.37     87.65 o
  10   0  14      464.84      424.24     70.41 o
  12   0  14       71.90       75.38     72.46 o
 -17   1  14       69.04       52.30     32.01 o
 -15   1  14       27.48       36.23     29.44 o
 -13   1  14       86.15      113.07     28.82 o
 -11   1  14      856.68      786.37     45.19 o
  -9   1  14      271.88      264.49     31.20 o
  -7   1  14       60.08      102.11     37.90 o
  -5   1  14       37.59       63.69     34.38 o
  -3   1  14      419.26      423.07     45.66 o
  -1   1  14     1367.22     1444.80     89.76 o
   1   1  14     1927.24     1756.23     98.54 o
   3   1  14      492.38      501.79     29.37 o
   5   1  14      546.33      523.78     38.23 o
   7   1  14       86.71       94.37     47.93 o
   9   1  14       33.68       50.00     48.53 o
  11   1  14        1.18       -0.58     47.62 o
 -16   2  14      370.93      376.89     33.96 o
 -14   2  14       76.87      111.03     31.18 o
 -12   2  14       73.23       93.20     31.91 o
 -10   2  14      983.19      866.59     44.71 o
  -8   2  14      110.23      280.57     50.22 o
  -6   2  14     1036.69      985.21     30.77 o
  -4   2  14       38.54       41.20     48.76 o
  -2   2  14     1335.54     1197.89     51.32 o
   0   2  14     1003.73      890.69     73.24 o
   2   2  14     1436.36     1411.78     79.04 o
   4   2  14      109.02      286.88     41.44 o
   6   2  14      868.57      762.40     32.34 o
   8   2  14      400.82      359.28     45.85 o
  10   2  14       81.52       71.16     54.81 o
  12   2  14        0.65        1.17     51.87 o
 -17   3  14      182.71      199.13     39.03 o
 -15   3  14        3.99        2.05     32.69 o
 -13   3  14      226.12      293.05     54.02 o
 -11   3  14     1429.05     1484.91     73.53 o
  -9   3  14       36.55       76.25     22.75 o
  -7   3  14     1490.04     1592.55    108.15 o
  -5   3  14        0.02        5.26     35.03 o
  -3   3  14      321.51      289.41     50.08 o
  -1   3  14      472.29      424.53     47.37 o
   1   3  14      952.29     1271.54     48.90 o
   3   3  14       45.12       33.89     23.53 o
   5   3  14       46.13       49.91     21.28 o
   7   3  14        0.28       -0.21     26.20 o
   9   3  14       74.58       84.09     44.89 o
  11   3  14       67.67       61.06     69.25 o
 -16   4  14      170.99      205.40     39.98 o
 -14   4  14        8.77       11.14     27.87 o
 -12   4  14       80.42       58.45     23.75 o
 -10   4  14     2428.31     2080.43     77.64 o
  -8   4  14      864.46      862.99     51.32 o
  -6   4  14     1646.18     1697.24     41.14 o
  -4   4  14      242.86      215.62     39.47 o
  -2   4  14        6.27        1.17     30.77 o
   0   4  14       24.46       40.61     54.13 o
   2   4  14        6.05       23.96     37.10 o
   4   4  14      484.92      504.64     44.64 o
   6   4  14        3.67       -0.11     23.58 o
   8   4  14       16.84       28.93     51.78 o
  10   4  14        8.73       11.10     65.74 o
 -15   5  14      297.35      303.97     28.74 o
 -13   5  14      287.32      329.57     56.70 o
 -11   5  14      260.36      269.78     21.11 o
  -9   5  14      235.85      255.57     18.94 o
  -7   5  14      579.73      484.13     59.44 o
  -5   5  14      729.37      861.22     90.52 o
  -3   5  14     2886.41     2449.22    161.44 o
  -1   5  14      193.74      310.75    132.65 o
   1   5  14       72.14       63.11     26.54 o
   3   5  14       48.92       46.16     34.50 o
   5   5  14        5.89       13.44     27.90 o
   7   5  14      108.72      116.49     36.04 o
   9   5  14        1.90        1.75     42.00 o
  11   5  14       29.35       23.96     69.25 o
 -14   6  14        0.10        0.29     29.53 o
 -12   6  14      647.34      612.84     46.98 o
 -10   6  14        1.98       19.46     23.45 o
  -8   6  14       94.65       77.43     40.70 o
  -6   6  14       40.76      350.18    199.85 o
  -4   6  14      268.44      461.05     63.89 o
  -2   6  14        1.19       34.43     48.26 o
   0   6  14      623.89      752.06     79.67 o
   2   6  14      696.42      710.23     30.07 o
   4   6  14        5.33       24.87     29.77 o
   6   6  14      148.16      127.97     32.39 o
   8   6  14       49.61       55.63     46.79 o
  10   6  14      116.94      109.20     55.85 o
 -15   7  14       73.59       86.78     50.84 o
 -13   7  14        0.19       15.33     43.36 o
 -11   7  14        3.23        2.25     24.54 o
  -9   7  14       26.49       49.96     32.97 o
  -7   7  14       98.05      124.75     32.39 o
  -5   7  14      196.79      186.65     41.84 o
  -3   7  14      649.16      826.85     79.65 o
  -1   7  14     1375.65     1407.96     88.71 o
   1   7  14       38.27       46.40     44.21 o
   3   7  14      827.56      937.41     70.14 o
   5   7  14      393.97      525.33     58.35 o
   7   7  14      362.06      360.39     50.86 o
   9   7  14       18.86       22.52     54.82 o
 -14   8  14      191.34      179.98     34.38 o
 -12   8  14      134.12      139.42     22.50 o
 -10   8  14      314.45      319.24     17.40 o
  -8   8  14      885.71      943.77     71.60 o
  -6   8  14      923.19      721.09    110.47 o
  -4   8  14       23.16       13.49     53.54 o
  -2   8  14     2677.91     2843.73     89.20 o
   0   8  14      703.64      961.54     92.20 o
   2   8  14      170.84      155.83     44.44 o
   4   8  14      582.64      636.47     57.76 o
   6   8  14        0.81        6.84     35.61 o
   8   8  14       28.78       25.16     50.11 o
 -13   9  14       82.44       81.52     30.16 o
 -11   9  14       36.15       43.81     20.57 o
  -9   9  14       65.73       65.60     59.06 o
  -7   9  14     1026.24     1151.91    130.60 o
  -5   9  14      124.87      160.47     55.16 o
  -3   9  14       39.54       52.59     44.71 o
  -1   9  14       19.34       22.43     57.39 o
   1   9  14        0.09       13.11     60.61 o
   3   9  14      726.91      735.24     38.13 o
   5   9  14        3.69        7.44     35.71 o
   7   9  14       17.76       21.23     49.77 o
 -10  10  14       13.73        5.26     66.62 o
  -8  10  14      127.74      139.32     61.19 o
  -6  10  14       75.19      388.59     93.35 o
  -4  10  14       99.34       86.77     58.20 o
  -2  10  14      659.32      559.12     88.78 o
   0  10  14      500.92      512.18     64.07 o
   2  10  14       47.46       51.27     43.56 o
   4  10  14        1.77        2.13     36.63 o
   6  10  14      212.85      231.17     59.34 o
 -11  11  14        7.91       13.44     72.46 o
  -9  11  14       17.17       15.78     64.90 o
  -7  11  14        9.67       24.94     61.81 o
  -5  11  14       67.93       34.63     60.95 o
  -3  11  14       90.92      101.19     61.12 o
  -1  11  14      297.64      333.48     64.17 o
   1  11  14       36.87       28.48     70.95 o
   3  11  14      273.13      234.03     48.63 o
   5  11  14      180.99      212.16     46.55 o
  -8  12  14       49.22       35.94     77.49 o
  -6  12  14      128.54      131.30     76.02 o
  -4  12  14      212.64      211.32     72.07 o
  -2  12  14        0.12       -0.47     74.15 o
   0  12  14      196.63      204.31     78.32 o
   2  12  14       22.03       24.15     79.49 o
   4  12  14       13.46       17.47     39.57 o
  -7  13  14        0.77        4.19     67.30 o
  -5  13  14       92.39      100.89     73.62 o
  -3  13  14        1.43        3.51     67.76 o
  -1  13  14      101.47       72.75     82.47 o
   1  13  14       22.61       23.82     86.45 o
 -16   1  15      131.35      101.68     51.64 o
 -14   1  15       10.42        5.26     25.39 o
 -12   1  15      221.45      200.14     43.48 o
 -10   1  15      616.26      816.63     47.31 o
  -8   1  15      550.15      506.63     32.79 o
  -6   1  15       39.38       81.38     50.49 o
  -4   1  15     2553.14     2607.65     83.35 o
  -2   1  15     3113.78     2831.13    107.01 o
   0   1  15      171.84      198.09     40.66 o
   2   1  15     3121.53     3142.62     68.34 o
   4   1  15     2023.08     2126.23     60.43 o
   6   1  15      488.23      527.08     27.48 o
   8   1  15       13.20       17.82     44.35 o
  10   1  15      273.19      274.91     53.19 o
 -17   2  15       19.35       27.76     37.37 o
 -15   2  15      135.28      146.96     35.28 o
 -13   2  15      459.96      468.06     37.35 o
 -11   2  15        0.01       45.87     25.20 o
  -9   2  15      737.92      779.48     48.74 o
  -7   2  15       25.15       40.90     35.53 o
  -5   2  15     1914.43     2158.81     58.45 o
  -3   2  15     2872.43     2731.51    200.60 o
  -1   2  15     1074.01     1011.80     94.21 o
   1   2  15     2831.85     2877.18    105.77 o
   3   2  15      203.30      206.37     26.66 o
   5   2  15      493.90      444.75     40.08 o
   7   2  15      189.88      176.18     49.12 o
   9   2  15       32.81       37.25     48.13 o
  11   2  15        3.34       16.16     54.21 o
 -16   3  15       63.79       62.23     37.70 o
 -14   3  15      208.60      217.96     26.03 o
 -12   3  15        2.11        2.32     24.35 o
 -10   3  15      467.37      427.65     29.57 o
  -8   3  15     1515.54     1779.38     42.22 o
  -6   3  15     1397.58     1225.67    103.19 o
  -4   3  15      257.31      235.78     39.96 o
  -2   3  15     3894.14     3428.96    172.10 o
   0   3  15     1557.88     1666.64    206.27 o
   2   3  15       43.98       68.37     32.60 o
   4   3  15      253.80      229.36     28.91 o
   6   3  15       38.42       39.83     24.80 o
   8   3  15      269.28      274.51     45.65 o
  10   3  15       87.37       81.36     46.25 o
 -15   4  15       21.05       15.49     37.84 o
 -13   4  15      117.27      112.05     46.16 o
 -11   4  15      102.01       82.32     21.49 o
  -9   4  15      400.71      427.16     21.85 o
  -7   4  15       17.75       16.65     21.51 o
  -5   4  15      279.05      267.75     30.20 o
  -3   4  15     4808.14     4538.98    193.99 o
  -1   4  15      171.95      136.45     46.79 o
   1   4  15      557.23      565.94     77.24 o
   3   4  15     4336.40     3931.28    145.15 o
   5   4  15     2101.65     1987.59     54.48 o
   7   4  15        7.88       31.85     36.79 o
   9   4  15       18.54       18.41     63.40 o
 -16   5  15        0.27       -0.58     32.64 o
 -14   5  15      382.26      366.09     35.18 o
 -12   5  15       80.46       90.57     28.78 o
 -10   5  15      487.82      463.36     36.26 o
  -8   5  15       44.83       37.13     23.73 o
  -6   5  15     1131.33     1083.38     38.24 o
  -4   5  15     5897.47     5298.14    157.00 o
  -2   5  15       23.84       26.30     32.84 o
   0   5  15       71.86       59.90     39.21 o
   2   5  15      417.93      435.80     39.51 o
   4   5  15      371.64      369.06     28.45 o
   6   5  15        2.25        1.17     27.64 o
   8   5  15        5.81       10.52     42.97 o
  10   5  15        7.80        3.51     68.66 o
 -15   6  15       14.25       33.02     39.46 o
 -13   6  15      707.02      788.40     98.90 o
 -11   6  15      629.87      891.42     44.89 o
  -9   6  15     2115.79     1997.94     69.51 o
  -7   6  15      264.68      274.64     38.34 o
  -5   6  15        4.82        9.60     32.11 o
  -3   6  15       66.96       65.74     48.79 o
  -1   6  15       91.45      104.89     46.16 o
   1   6  15     1425.11     1289.95     70.12 o
   3   6  15      401.92      397.98     28.43 o
   5   6  15       17.98       18.10     28.09 o
   7   6  15      224.17      234.76     44.05 o
   9   6  15      172.75      177.35     55.59 o
 -14   7  15       75.23       80.64     32.90 o
 -12   7  15        0.30        2.05     26.83 o
 -10   7  15      522.60      487.05     28.05 o
  -8   7  15     1670.59     1892.83     61.60 o
  -6   7  15     2321.57     2274.87    146.95 o
  -4   7  15       43.26       36.23     27.72 o
  -2   7  15      476.18      492.55     52.89 o
   0   7  15      108.73      109.86     53.54 o
   2   7  15        0.28        4.12     37.72 o
   4   7  15      144.79      146.09     33.78 o
   6   7  15        0.09        1.07     32.47 o
   8   7  15      102.22      102.98     54.78 o
 -13   8  15        0.65        4.67     24.53 o
 -11   8  15        7.59        9.79     24.26 o
  -9   8  15       78.97       76.12     31.45 o
  -7   8  15       94.57      181.48     92.77 o
  -5   8  15       14.49       66.62     59.47 o
  -3   8  15      983.71      884.71     81.11 o
  -1   8  15      240.74      245.69     54.97 o
   1   8  15       94.54       57.56     77.11 o
   3   8  15      818.50      774.15     41.25 o
   5   8  15      386.95      398.23     50.45 o
   7   8  15       18.01       33.56     51.66 o
 -12   9  15      230.72      222.34     28.74 o
 -10   9  15       12.43       11.69     59.90 o
  -8   9  15      240.00      210.48     77.90 o
  -6   9  15      991.19      979.95     91.88 o
  -4   9  15      238.22      198.88     70.68 o
  -2   9  15      215.73      266.41     61.24 o
   0   9  15       57.34       79.74     62.31 o
   2   9  15       20.03       28.68     42.90 o
   4   9  15      261.35      252.99     38.98 o
   6   9  15       17.86       12.82     48.96 o
 -11  10  15        7.57       17.53     75.97 o
  -9  10  15        9.16        1.86     59.24 o
  -7  10  15        0.99       33.55     65.06 o
  -5  10  15       21.19       48.79     59.06 o
  -3  10  15        0.91        7.08     56.57 o
  -1  10  15       58.08       86.19     63.12 o
   1  10  15       61.26       60.67     66.87 o
   3  10  15      233.75      235.40     54.37 o
   5  10  15       66.19       64.61     46.51 o
 -10  11  15       18.90       14.02     85.02 o
  -8  11  15        0.06        5.12     70.17 o
  -6  11  15       84.07       77.80     76.75 o
  -4  11  15        1.11        0.39     58.09 o
  -2  11  15      493.74      460.17     84.80 o
   0  11  15       48.89       80.58     67.76 o
   2  11  15       41.79       63.11     65.68 o
   4  11  15       88.12      100.58     38.43 o
  -9  12  15       43.09       60.77     68.63 o
  -7  12  15       61.94       73.63     75.70 o
  -5  12  15       65.14       41.24     72.07 o
  -3  12  15        0.01       -0.58     68.64 o
  -1  12  15        9.13       17.22     77.05 o
   1  12  15       39.81       49.21     79.11 o
   3  12  15       88.92       97.09     50.14 o
  -6  13  15       69.20       86.11     71.01 o
  -4  13  15      188.93      207.74     77.80 o
  -2  13  15       10.16       15.89     79.21 o
   0  13  15        0.32        9.35     87.89 o
 -16   0  16      466.41      433.59     73.92 o
 -14   0  16        0.55       15.49     54.64 o
 -12   0  16     3824.50     3822.22    158.36 o
 -10   0  16     1799.11     1797.16     46.24 o
  -8   0  16       72.28       69.54     86.48 o
  -6   0  16     3559.71     3402.07    146.09 o
  -4   0  16     8802.45     8267.65    320.81 o
  -2   0  16     4496.54     4374.72     77.13 o
   0   0  16      689.95      792.38    240.75 o
   2   0  16     1357.55     1417.34     77.43 o
   4   0  16       23.94       54.22     43.77 o
   6   0  16     1542.32     1509.08     55.48 o
   8   0  16       64.09       54.34     63.11 o
  10   0  16        0.10       -0.58     69.83 o
 -15   1  16       56.83       54.93     28.28 o
 -13   1  16       19.34       24.54     27.57 o
 -11   1  16       68.94       68.95     39.86 o
  -9   1  16      391.17      374.57     27.20 o
  -7   1  16     2518.84     2661.09     77.05 o
  -5   1  16      217.12      173.55     48.99 o
  -3   1  16      103.92       94.45     36.57 o
  -1   1  16     1310.87     1247.00     85.01 o
   1   1  16      474.63      495.39     51.06 o
   3   1  16     1647.14     1708.80    106.29 o
   5   1  16      826.98      786.53     81.19 o
   7   1  16      187.94      185.24     49.84 o
   9   1  16       10.84       13.44     43.90 o
 -16   2  16       61.76       87.07     29.69 o
 -14   2  16        0.27        4.97     34.59 o
 -12   2  16       87.73       81.22     34.20 o
 -10   2  16      427.46      411.96     23.20 o
  -8   2  16      247.55      271.85     25.88 o
  -6   2  16     6493.58     6303.34    151.12 o
  -4   2  16       30.75       29.08     36.44 o
  -2   2  16     1561.82     1171.03    205.46 o
   0   2  16     2147.37     2056.03     82.02 o
   2   2  16      885.92      856.95     31.29 o
   4   2  16       51.56       41.55     43.07 o
   6   2  16        0.51        1.74     29.29 o
   8   2  16      119.30      104.89     47.10 o
  10   2  16       27.66       26.27     50.28 o
 -15   3  16        1.12       -0.19     32.05 o
 -13   3  16       30.71       35.67     30.66 o
 -11   3  16     1755.81     1815.64     50.83 o
  -9   3  16      159.80      157.55     27.81 o
  -7   3  16      396.16      400.57     32.83 o
  -5   3  16     1197.47     1081.08     76.95 o
  -3   3  16      167.39      199.96     36.56 o
  -1   3  16      484.69      449.63     52.06 o
   1   3  16     1537.25     1654.00     81.50 o
   3   3  16      829.91      729.56    132.72 o
   5   3  16       48.72       36.47     28.77 o
   7   3  16       37.99       48.50     38.76 o
   9   3  16        0.65       -0.58     44.67 o
 -16   4  16        2.23        4.70     33.55 o
 -14   4  16      131.80      121.54     46.32 o
 -12   4  16      574.90      570.32     43.78 o
 -10   4  16      102.16      100.27     20.02 o
  -8   4  16       29.97       39.93     28.97 o
  -6   4  16      197.41      163.91     51.60 o
  -4   4  16        0.10       25.85     54.40 o
  -2   4  16       96.35      109.27     58.56 o
   0   4  16       57.86       84.44     49.78 o
   2   4  16       16.21       12.56     27.24 o
   4   4  16      239.19      254.21     26.96 o
   6   4  16       36.40       38.34     27.16 o
   8   4  16       44.40       31.26     54.64 o
  10   4  16       68.18       70.71     79.18 o
 -15   5  16      106.01       98.89     46.91 o
 -13   5  16      335.24      326.07     46.51 o
 -11   5  16     1307.93     1585.97     55.25 o
  -9   5  16       35.97      360.15     48.00 o
  -7   5  16      153.29      147.69     24.17 o
  -5   5  16     3328.72     3203.98    165.07 o
  -3   5  16     2501.41     2373.86     96.68 o
  -1   5  16       43.03       95.83     47.13 o
   1   5  16        7.41       33.60     47.28 o
   3   5  16      288.30      320.49     35.94 o
   5   5  16      125.95      117.97     38.11 o
   7   5  16       51.78       33.60     54.00 o
   9   5  16       18.27       42.37     81.52 o
 -14   6  16       98.61      110.95     33.51 o
 -12   6  16        5.75       27.97     32.57 o
 -10   6  16       24.49       20.13     23.68 o
  -8   6  16        5.02       28.05     29.97 o
  -6   6  16      801.32      738.26     58.08 o
  -4   6  16        5.62       25.13     42.76 o
  -2   6  16      332.30      459.59     61.89 o
   0   6  16      274.07      301.97     40.21 o
   2   6  16      117.79      105.97     29.91 o
   4   6  16       93.21       75.12     29.61 o
   6   6  16      198.45      160.40     37.17 o
   8   6  16        9.36       26.12     49.37 o
 -13   7  16      120.20      118.04     28.49 o
 -11   7  16       10.59       15.78     26.80 o
  -9   7  16      239.93      246.43     27.34 o
  -7   7  16      752.46      803.19     34.57 o
  -5   7  16     2335.05     2517.08     89.31 o
  -3   7  16        5.69        7.60     53.76 o
  -1   7  16      246.75      231.69     57.56 o
   1   7  16     1424.86     1375.56    150.76 o
   3   7  16       13.21       32.14     39.40 o
   5   7  16      275.49      315.62     54.84 o
   7   7  16       13.22       10.96     43.59 o
 -12   8  16       54.84       48.21     30.78 o
 -10   8  16       58.04       54.23     25.27 o
  -8   8  16      495.07      731.02     56.82 o
  -6   8  16       10.23       42.44     62.69 o
  -4   8  16     1542.55     1393.99    100.05 o
  -2   8  16        0.72       10.31     62.97 o
   0   8  16       24.78       23.35     56.44 o
   2   8  16        1.66       -0.58     36.00 o
   4   8  16        8.87       19.86     28.28 o
   6   8  16       36.53       33.60     36.99 o
 -11   9  16      746.08      746.21     91.74 o
  -9   9  16       19.16       31.85     68.95 o
  -7   9  16       20.81       30.06     55.70 o
  -5   9  16      620.25      729.32    193.57 o
  -3   9  16      518.73      548.99     60.40 o
  -1   9  16      278.58      284.22     60.86 o
   1   9  16       35.37       37.98     58.01 o
   3   9  16        8.93       10.21     41.40 o
   5   9  16      244.39      229.94     46.43 o
   7   9  16       90.97       82.82     62.04 o
 -10  10  16       31.57       23.96     78.59 o
  -8  10  16      105.32      105.77     59.10 o
  -6  10  16     1785.35     1711.26     94.71 o
  -4  10  16      164.14      136.74     72.26 o
  -2  10  16        0.29        3.78     66.21 o
   0  10  16      157.57      202.16     63.44 o
   2  10  16      510.45      464.26     92.55 o
   4  10  16        1.53        2.50     34.38 o
  -9  11  16        7.39       26.26     69.56 o
  -7  11  16      244.81      225.46     73.33 o
  -5  11  16       55.06       58.60     66.07 o
  -3  11  16      143.97      149.01     71.84 o
  -1  11  16        4.75        5.84     65.76 o
   1  11  16      296.38      274.64     90.89 o
   3  11  16       39.01       33.89     43.77 o
  -8  12  16       60.97       55.81     72.45 o
  -6  12  16      281.70      296.72     74.38 o
  -4  12  16      483.19      508.38     75.56 o
  -2  12  16      259.18      271.72     77.00 o
   0  12  16      237.81      259.74     87.33 o
   2  12  16       31.30       63.92     83.24 o
 -16   1  17      227.10      224.10     35.81 o
 -14   1  17     1757.56     1913.47     76.34 o
 -12   1  17      201.52      205.83     25.05 o
 -10   1  17      965.56     1019.81     23.41 o
  -8   1  17     1605.27     1794.53     64.34 o
  -6   1  17     1477.96     1457.66     53.18 o
  -4   1  17       23.43       70.56     55.98 o
  -2   1  17     6825.05     6375.88    212.58 o
   0   1  17     3418.18     3330.05    143.17 o
   2   1  17      775.13      762.87     56.52 o
   4   1  17      110.59      110.58     28.32 o
   6   1  17      311.74      308.35     39.60 o
   8   1  17       43.15       37.03     42.83 o
  10   1  17       10.19        9.35     49.22 o
 -15   2  17       29.35       47.62     37.40 o
 -13   2  17      225.16      217.09     32.12 o
 -11   2  17       63.53       60.48     35.75 o
  -9   2  17      117.20      105.19     25.96 o
  -7   2  17      185.82      189.62     52.58 o
  -5   2  17      242.25      257.83     38.52 o
  -3   2  17       45.15       65.52     45.01 o
  -1   2  17     1281.18     1464.38     83.98 o
   1   2  17       92.40       92.93     41.11 o
   3   2  17      183.20      194.55     34.42 o
   5   2  17      199.58      158.28     33.34 o
   7   2  17        0.37        1.64     43.92 o
   9   2  17       21.72       27.47     49.58 o
 -16   3  17       31.69       36.10     32.56 o
 -14   3  17      902.11      927.07     49.22 o
 -12   3  17      127.89      139.37     24.29 o
 -10   3  17      642.43      957.07     42.22 o
  -8   3  17      689.69      610.64     42.50 o
  -6   3  17      861.66     1055.33     63.71 o
  -4   3  17     1041.41      943.72     50.95 o
  -2   3  17      125.64      214.02     69.62 o
   0   3  17      288.05      444.10     66.52 o
   2   3  17        5.16        8.62     43.06 o
   4   3  17      671.57      796.76     73.11 o
   6   3  17       21.25       10.71     29.57 o
   8   3  17      104.07      113.72     45.96 o
 -15   4  17      285.05      313.79     38.02 o
 -13   4  17        0.04        6.40     31.29 o
 -11   4  17        2.91        2.81     36.52 o
  -9   4  17     1145.56     1140.13     26.47 o
  -7   4  17      619.58      646.00     36.88 o
  -5   4  17      853.35     1094.63    121.46 o
  -3   4  17     1382.03     1473.14    117.65 o
  -1   4  17     2784.74     2742.64     83.03 o
   1   4  17        5.26       10.73     40.22 o
   3   4  17       89.92       71.29     42.72 o
   5   4  17       12.60        5.94     29.51 o
   7   4  17      251.70      258.87     83.56 o
   9   4  17        8.54        6.14     68.37 o
 -14   5  17       88.10       82.98     30.77 o
 -12   5  17       18.63       26.74     28.82 o
 -10   5  17       15.15       30.47     21.69 o
  -8   5  17      815.96      787.99     40.55 o
  -6   5  17        9.81       20.78     28.75 o
  -4   5  17        0.33       10.23     42.22 o
  -2   5  17      778.94      758.92     76.75 o
   0   5  17      462.99      418.69     52.37 o
   2   5  17       58.11       64.95     29.81 o
   4   5  17        3.17        1.30     33.57 o
   6   5  17        2.35       12.50     31.35 o
   8   5  17       91.50       75.38     66.62 o
 -13   6  17      953.46      952.49     43.50 o
 -11   6  17        1.27        0.92     30.08 o
  -9   6  17       57.84       57.56     25.34 o
  -7   6  17      337.46      353.53     33.56 o
  -5   6  17        0.95       85.22     48.58 o
  -3   6  17        7.05       30.09     47.20 o
  -1   6  17       18.96       14.17     39.35 o
   1   6  17       47.08       61.94     46.46 o
   3   6  17       52.93       65.46     35.15 o
   5   6  17      370.43      442.96     73.60 o
   7   6  17        7.53        9.93     40.85 o
 -14   7  17        0.29       -0.27     31.56 o
 -12   7  17       34.74       35.08     30.78 o
 -10   7  17        1.22        1.46     31.37 o
  -8   7  17       34.55       34.03     28.93 o
  -6   7  17       55.06       64.86     28.78 o
  -4   7  17      709.83      884.12     74.98 o
  -2   7  17        9.50        9.64     46.17 o
   0   7  17      131.64      131.73     43.89 o
   2   7  17      367.04      327.53     50.61 o
   4   7  17      183.33      157.87     45.82 o
   6   7  17        0.76        1.69     36.68 o
 -13   8  17      151.86      155.14     53.47 o
 -11   8  17       30.10       45.07     28.10 o
  -9   8  17      454.99      422.48     38.86 o
  -7   8  17     1064.90      989.30     95.54 o
  -5   8  17      186.82      141.41     77.13 o
  -3   8  17       18.37       23.96     54.93 o
  -1   8  17       90.18       85.31     69.25 o
   1   8  17      149.07      138.49     73.63 o
   3   8  17       74.09       87.96     33.88 o
   5   8  17        1.85        1.89     30.75 o
   7   8  17        4.86       23.72     50.95 o
 -10   9  17       76.20       58.43     58.67 o
  -8   9  17       16.47       32.43     63.99 o
  -6   9  17        1.93       38.99     65.06 o
  -4   9  17        1.78        3.12     60.80 o
  -2   9  17        0.52       -0.58     62.26 o
   0   9  17        1.65        1.75     71.16 o
   2   9  17       73.90       56.97     85.32 o
   4   9  17        4.21        5.26     36.63 o
   6   9  17       19.90       28.78     39.49 o
 -11  10  17      225.20      237.54     78.30 o
  -9  10  17       43.84       44.70     74.50 o
  -7  10  17       19.55       20.05     64.12 o
  -5  10  17       68.71       51.71     71.29 o
  -3  10  17      121.05       99.92     75.48 o
  -1  10  17       25.30       25.13     74.34 o
   1  10  17      319.85      280.78     86.68 o
   3  10  17       29.51       25.08     46.17 o
  -8  11  17       45.37       47.62     64.43 o
  -6  11  17       73.01       86.19     64.05 o
  -4  11  17        0.48       28.34     77.75 o
  -2  11  17        0.93       24.64     73.07 o
   0  11  17       73.39       65.05     74.09 o
   2  11  17       28.79       43.01     76.39 o
  -5  12  17        7.25        1.17     69.93 o
  -3  12  17        0.83       -0.58     75.99 o
  -1  12  17      197.15      193.95     77.29 o
 -16   0  18      454.60      474.78     48.21 o
 -14   0  18       23.04       94.96     69.25 o
 -12   0  18       32.01       29.80     33.31 o
 -10   0  18     2113.61     2093.13     94.40 o
  -8   0  18     4885.88     4694.94    115.70 o
  -6   0  18      172.25      227.02     72.17 o
  -4   0  18      287.68      330.74     77.13 o
   0   0  18     1852.86     1353.35    398.82 o
   2   0  18      427.76      391.22     71.58 o
   4   0  18        6.66        7.71     36.55 o
   6   0  18      535.33      463.39     60.47 o
   8   0  18       97.11       75.97     73.63 o
 -15   1  18       45.72       39.58     32.66 o
 -13   1  18       18.84       10.81     32.29 o
 -11   1  18      683.07      631.10     35.15 o
  -9   1  18        6.52        9.17     28.79 o
  -7   1  18      613.72      609.48     46.42 o
  -5   1  18      356.63      343.89     45.52 o
  -3   1  18     4366.91     4028.48    246.88 o
  -1   1  18      461.90      385.67     56.98 o
   1   1  18     2696.72     2831.75    138.01 o
   3   1  18       22.35       27.76     57.94 o
   5   1  18       29.69       33.30     28.10 o
   7   1  18        3.22       13.81     43.04 o
   9   1  18       66.10       73.92     46.69 o
 -14   2  18        9.15       30.68     35.18 o
 -12   2  18       86.09      138.44     32.61 o
 -10   2  18     2591.27     2749.44     80.34 o
  -8   2  18        0.86        1.49     28.00 o
  -6   2  18        0.80        1.09     39.06 o
  -4   2  18      986.67      955.86     62.48 o
  -2   2  18      145.16      219.13    100.22 o
   0   2  18       94.02      113.82     45.13 o
   2   2  18      746.56      695.21     65.27 o
   4   2  18      127.25      130.81     38.37 o
   6   2  18       66.68       62.14     34.95 o
   8   2  18       38.78       51.16     45.63 o
 -15   3  18      147.73      160.11     34.78 o
 -13   3  18        0.59        5.26     40.59 o
 -11   3  18       29.32       17.69     21.72 o
  -9   3  18      892.46     1132.63    119.44 o
  -7   3  18        0.35        3.71     36.57 o
  -5   3  18     1201.36     1273.29     75.51 o
  -3   3  18       91.30       69.25     58.43 o
  -1   3  18       81.18       79.76     43.80 o
   1   3  18      289.37      266.75     67.74 o
   3   3  18       47.55       37.02     32.95 o
   5   3  18      120.26      145.03     37.56 o
   7   3  18      151.40      154.85     48.78 o
 -14   4  18        8.13       22.50     36.86 o
 -12   4  18       66.29       84.39     31.56 o
 -10   4  18       91.29      109.86     34.06 o
  -8   4  18        0.66        5.34     25.66 o
  -6   4  18       17.03       21.62     34.49 o
  -4   4  18       90.86      108.24     53.62 o
  -2   4  18        3.91       52.59     44.81 o
   0   4  18      522.07      514.23     71.51 o
   2   4  18       32.94       39.44     41.83 o
   4   4  18       77.80       90.69     34.13 o
   6   4  18      248.83      215.33     58.86 o
   8   4  18        3.64        1.75     62.82 o
 -13   5  18        4.83        1.46     55.08 o
 -11   5  18      176.58      155.68     29.29 o
  -9   5  18      608.94      596.41     37.48 o
  -7   5  18        3.66       44.12     35.35 o
  -5   5  18      252.99      247.76     41.98 o
  -3   5  18      783.78      961.82     81.29 o
  -1   5  18       11.61       12.56     37.48 o
   1   5  18      174.46      167.71     52.68 o
   3   5  18       19.74       14.02     35.79 o
   5   5  18       81.62       76.55     41.60 o
   7   5  18        9.22       14.90     56.10 o
 -14   6  18       31.33       42.44     36.71 o
 -12   6  18        0.17        1.46     30.99 o
 -10   6  18        2.96        2.63     27.24 o
  -8   6  18      280.48      224.22     43.67 o
  -6   6  18       29.43       31.93     30.71 o
  -4   6  18       14.89       14.90     37.29 o
  -2   6  18       73.52       69.84     43.28 o
   0   6  18       97.04      102.26     57.54 o
   2   6  18       38.80       36.24     45.03 o
   4   6  18      169.89      173.26     46.48 o
   6   6  18        0.35       -0.58     36.88 o
 -13   7  18        8.61        3.65     41.28 o
 -11   7  18      201.74      241.39     28.06 o
  -9   7  18        5.74        3.67     29.40 o
  -7   7  18       56.23       58.40     32.58 o
  -5   7  18       69.19       61.92     44.67 o
  -3   7  18      189.75      196.63     52.79 o
  -1   7  18      171.23      174.28     50.09 o
   1   7  18      287.39      313.50     54.65 o
   3   7  18        4.71        0.38     40.60 o
   5   7  18       18.08       18.62     38.06 o
 -12   8  18       31.64       53.33     37.31 o
 -10   8  18        5.08        6.08     34.48 o
  -8   8  18      317.78      333.95     46.13 o
  -6   8  18       42.69       39.74     52.32 o
  -4   8  18       24.41       43.24     51.02 o
  -2   8  18       30.84       33.02     48.44 o
   0   8  18      244.94      262.19     55.18 o
   2   8  18        0.84        0.29     45.84 o
   4   8  18       58.91       56.59     37.95 o
   6   8  18      218.20      223.86     41.19 o
 -11   9  18        0.08       -0.58     71.58 o
  -9   9  18        0.06       -0.58     48.52 o
  -7   9  18        0.99       -0.58     66.62 o
  -3   9  18        3.09       52.59     71.29 o
  -1   9  18      350.72      350.61     80.93 o
   1   9  18      134.85      142.00     53.63 o
   3   9  18        3.02        5.72     47.88 o
 -10  10  18      439.73      463.97     73.41 o
  -8  10  18       24.82       13.44     71.87 o
  -6  10  18       21.44        9.93     66.62 o
  -4  10  18      395.66      428.33     74.41 o
  -2  10  18      367.96      351.19     81.77 o
   0  10  18      219.60      171.51     81.08 o
   2  10  18       22.47       17.53     78.01 o
  -7  11  18      289.07      273.69     68.05 o
  -5  11  18      179.28      198.13     69.88 o
  -3  11  18        7.12       12.17     68.90 o
  -1  11  18        8.24       18.76     76.69 o
   1  11  18      100.63      134.40     69.81 o
 -14   1  19       72.44       78.89     29.72 o
 -12   1  19      548.08      542.28     53.83 o
 -10   1  19      655.46      688.07     44.90 o
  -8   1  19      550.00      843.65     91.47 o
  -6   1  19      204.39      198.39     43.97 o
  -4   1  19      227.80      199.55     58.67 o
  -2   1  19      849.39     1035.02     82.86 o
   0   1  19        5.82        2.32     43.56 o
   2   1  19       36.05       25.71     43.89 o
   4   1  19        4.65        2.63     34.02 o
   6   1  19       79.36       78.89     45.55 o
   8   1  19       60.80       54.34     54.94 o
 -15   2  19       27.05       24.33     33.40 o
 -13   2  19       82.12      103.27     43.55 o
 -11   2  19       80.99       90.42     32.89 o
  -9   2  19        9.95        8.47     35.82 o
  -7   2  19       44.23       34.95     37.26 o
  -5   2  19     1177.20     1106.46     58.66 o
  -3   2  19     1130.15     1391.92     66.10 o
  -1   2  19        4.50        3.53     44.61 o
   1   2  19      119.70      108.14     48.24 o
   3   2  19      397.52      406.96     54.09 o
   5   2  19        2.30        5.26     36.35 o
   7   2  19        0.86        0.85     42.64 o
 -14   3  19       20.32       21.56     32.31 o
 -12   3  19       12.50       23.00     35.18 o
 -10   3  19        5.46       24.94     25.37 o
  -8   3  19      193.97      183.49     40.59 o
  -6   3  19     1628.68     1542.97     57.64 o
  -4   3  19      385.96      378.21     44.49 o
  -2   3  19      827.06      976.15     73.46 o
   0   3  19        5.40        9.69     45.83 o
   2   3  19        0.35       37.69     52.21 o
   4   3  19      333.14      331.42     36.52 o
   6   3  19       46.84       52.59     51.19 o
   8   3  19       26.88       22.50     73.04 o
 -13   4  19      632.31      586.72     52.29 o
 -11   4  19       35.26       39.44     27.22 o
  -9   4  19      392.35      378.95     42.18 o
  -7   4  19      215.52      213.87     39.00 o
  -5   4  19      425.69      440.60     50.00 o
  -3   4  19      597.32      864.25     72.92 o
  -1   4  19     2039.04     2208.25     91.41 o
   1   4  19        0.19        2.05     47.99 o
   3   4  19      165.05      153.25     64.35 o
   5   4  19      127.49      142.87     41.14 o
   7   4  19       27.81       34.48     61.06 o
 -14   5  19       18.88       27.84     37.48 o
 -12   5  19       31.98       32.97     35.53 o
 -10   5  19      116.32      116.67     29.66 o
  -8   5  19      445.59      436.88     33.96 o
  -6   5  19      616.95      582.59     60.84 o
  -4   5  19      538.09      680.40    157.77 o
  -2   5  19      207.48      227.02     51.43 o
   0   5  19        4.44       16.25     50.17 o
   2   5  19        2.11        2.63     43.87 o
   4   5  19      262.29      212.38     40.53 o
   6   5  19       20.50       15.78     43.43 o
 -13   6  19       20.95       11.31     36.68 o
 -11   6  19      100.12      116.32     32.98 o
  -9   6  19       74.48       78.51     45.11 o
  -7   6  19       40.83       41.20     27.72 o
  -5   6  19      272.01      310.44     39.85 o
  -3   6  19     1013.49      927.94     80.78 o
  -1   6  19       51.61       52.01     53.45 o
   1   6  19       27.05       46.73     47.58 o
   3   6  19      739.55      723.57     70.86 o
   5   6  19       92.84       93.79     40.48 o
 -12   7  19       59.60       66.04     33.15 o
 -10   7  19      186.51      198.68     38.82 o
  -8   7  19      266.82      237.66     43.72 o
  -6   7  19      150.22      139.07     47.26 o
  -4   7  19        0.90        1.18     43.47 o
  -2   7  19      466.16      436.22     60.17 o
   0   7  19      163.92      139.07     55.61 o
   2   7  19        9.48        9.35     46.81 o
   4   7  19       35.50       52.01     43.40 o
 -11   8  19       12.90        8.39     33.55 o
  -9   8  19      336.54      302.98     61.06 o
  -7   8  19       34.45       33.89     44.73 o
  -5   8  19       11.29       19.09     48.77 o
  -3   8  19        0.14        2.29     45.25 o
  -1   8  19      552.57      566.84     53.78 o
   1   8  19       43.01       46.75     48.10 o
   3   8  19       19.75       24.83     48.72 o
 -10   9  19        0.37        7.31     55.46 o
  -8   9  19       10.30       10.92     49.33 o
  -6   9  19        0.36        2.63     75.09 o
  -4   9  19       47.25       42.47     50.51 o
  -2   9  19      225.21      180.27     65.66 o
   0   9  19       17.00       27.45     51.59 o
   2   9  19       27.02       27.46     56.98 o
  -7  10  19       54.06       39.15     84.15 o
  -5  10  19        2.53        8.77     64.57 o
  -3  10  19      485.00      473.91     80.35 o
  -1  10  19       15.21        9.06     79.47 o
   1  10  19       15.85        2.92     54.20 o
  -4  11  19        0.74       -0.58     64.57 o
  -2  11  19        0.19       -0.58     73.56 o
 -14   0  20        5.25        2.92     48.21 o
 -12   0  20      168.87      191.37     49.67 o
 -10   0  20        9.25        8.77     37.29 o
  -8   0  20       36.68       71.00     98.46 o
  -6   0  20      176.36      151.64     56.39 o
  -4   0  20      699.79      701.80     83.27 o
  -2   0  20     1676.18     1384.32    200.72 o
   0   0  20      172.16      125.05    121.84 o
   2   0  20        2.23        2.63     67.78 o
   4   0  20        2.28        1.75     68.95 o
   6   0  20      105.34       89.99     58.73 o
 -13   1  20      363.67      368.43     39.36 o
 -11   1  20       66.43       68.45     24.20 o
  -9   1  20      167.82      147.21     30.70 o
  -7   1  20      298.36      310.00     46.16 o
  -5   1  20       19.98       32.14     38.23 o
  -3   1  20      517.06      494.36     44.36 o
  -1   1  20      168.10      170.05     52.25 o
   1   1  20       34.89       49.38     47.42 o
   3   1  20       14.55       17.82     51.77 o
   5   1  20       49.30       71.45     40.75 o
   7   1  20        1.39        4.40     43.18 o
 -14   2  20       92.99       71.87     49.75 o
 -12   2  20      690.54      659.56     48.38 o
 -10   2  20      226.42      225.56     32.00 o
  -8   2  20      600.30      798.80     75.30 o
  -6   2  20        8.89       23.81     51.62 o
  -4   2  20      553.66      578.23     43.91 o
  -2   2  20       89.05      101.24     82.64 o
   0   2  20      351.46      469.22     77.88 o
   2   2  20        2.71        1.64     48.81 o
   4   2  20        4.05        9.91     52.91 o
   6   2  20      232.19      219.13     63.99 o
 -13   3  20       53.18       61.66     35.47 o
 -11   3  20      463.38      634.60     46.25 o
  -9   3  20      111.43      128.37     28.19 o
  -7   3  20        9.56       32.42     54.73 o
  -5   3  20      288.94      292.89     51.20 o
  -3   3  20        5.68        2.37     41.96 o
  -1   3  20       41.44       70.12     55.68 o
   1   3  20      406.16      404.22     60.59 o
   3   3  20      280.26      277.86     55.76 o
   5   3  20       61.43       82.10     36.93 o
   7   3  20        4.27        4.67     59.90 o
 -14   4  20        9.27       10.72     33.69 o
 -12   4  20      142.05      142.51     31.50 o
 -10   4  20        0.79        1.75     29.23 o
  -8   4  20       58.37       70.01     31.63 o
  -6   4  20      281.21      302.10     47.81 o
  -4   4  20        3.60       10.52     47.38 o
  -2   4  20      276.41      232.69     73.32 o
   0   4  20      489.85      454.33     59.28 o
   2   4  20      132.79      107.81     52.43 o
   4   4  20        4.67        2.96     35.64 o
   6   4  20       28.01       20.74     59.90 o
 -13   5  20       73.56       66.32     37.35 o
 -11   5  20      607.12      569.04     46.30 o
  -9   5  20       21.59       31.22     31.64 o
  -7   5  20       82.79       93.24     31.47 o
  -5   5  20      698.34      670.27     60.68 o
  -3   5  20        2.66       36.52     49.47 o
  -1   5  20       81.31       75.38     46.78 o
   1   5  20      447.41      426.28     61.65 o
   3   5  20        4.81       20.90     50.32 o
   5   5  20        8.58       10.45     51.16 o
 -12   6  20        1.68        0.29     33.40 o
 -10   6  20       22.34       18.36     32.77 o
  -8   6  20       20.39       19.86     31.47 o
  -6   6  20       61.43       57.20     36.02 o
  -4   6  20      118.55      111.52     44.09 o
  -2   6  20       32.45       30.97     61.69 o
   0   6  20        0.87        7.89     48.85 o
   2   6  20        0.96       15.81     49.66 o
   4   6  20       67.78       95.76     40.43 o
 -11   7  20      546.20      561.84     41.66 o
  -9   7  20        3.30       11.75     37.43 o
  -7   7  20        1.23        2.28     47.71 o
  -5   7  20      462.43      457.26     50.92 o
  -3   7  20     1020.46     1021.15     61.98 o
  -1   7  20      107.51       77.57     63.58 o
   1   7  20       21.22       24.83     47.00 o
   3   7  20      131.52      124.12     56.39 o
 -10   8  20       25.16       15.05     51.13 o
  -8   8  20       65.78       63.99     47.68 o
  -6   8  20       25.36       32.14     45.59 o
  -4   8  20        6.29       12.56     48.44 o
  -2   8  20       31.51       28.05     53.71 o
   0   8  20       37.06       51.14     51.00 o
   2   8  20      210.76      237.65     52.54 o
  -9   9  20       64.97       86.19     54.02 o
  -7   9  20      120.07      154.85     49.87 o
  -5   9  20      257.17      263.25     54.97 o
  -3   9  20      320.01      255.65     64.84 o
  -1   9  20      236.42      220.20     54.03 o
   1   9  20      350.33      299.63     65.00 o
  -6  10  20       23.50       23.96     52.51 o
  -4  10  20      459.77      482.96     58.90 o
  -2  10  20        0.03        2.94     55.97 o
 -14   1  21      310.59      322.01     45.66 o
 -12   1  21       13.30       16.13     33.19 o
 -10   1  21      273.94      253.31     43.76 o
  -8   1  21      400.78      381.29     50.68 o
  -6   1  21      394.41      348.56     54.74 o
  -4   1  21       43.38       34.72     41.43 o
  -2   1  21      753.71      709.69     95.24 o
   0   1  21      682.94      570.62     93.90 o
   2   1  21       34.29       21.03     53.30 o
   4   1  21        6.83        6.86     55.82 o
   6   1  21        0.13       32.72     67.78 o
 -13   2  21       69.62       72.73     33.67 o
 -11   2  21       11.63       13.73     31.04 o
  -9   2  21      401.27      418.98     29.25 o
  -7   2  21      252.99      244.98     51.38 o
  -5   2  21        0.24        1.17     42.05 o
  -3   2  21       74.44       61.19     46.36 o
  -1   2  21      446.66      484.72     56.04 o
   1   2  21       53.14       49.96     62.66 o
   3   2  21        4.62        3.51     52.02 o
   5   2  21        6.00        5.26     56.27 o
 -12   3  21      125.15      133.04     32.23 o
 -10   3  21      282.33      287.68     33.70 o
  -8   3  21      180.81      198.56     33.69 o
  -6   3  21      116.87      105.33     56.60 o
  -4   3  21       93.90       86.19     42.35 o
  -2   3  21      650.69      609.33     67.14 o
   0   3  21      667.59      586.39     77.36 o
   2   3  21        5.11        3.65     50.93 o
   4   3  21       48.15       76.55     58.47 o
 -13   4  21      334.14      369.21     37.79 o
 -11   4  21       75.62       65.36     35.94 o
  -9   4  21       12.34       10.33     31.30 o
  -7   4  21      997.72     1318.00     71.07 o
  -5   4  21      713.08      702.06     49.46 o
  -3   4  21        7.17       37.69     51.16 o
  -1   4  21      142.04      137.15     47.51 o
   1   4  21       57.34       59.45     48.86 o
   3   4  21        0.27       -0.58     49.69 o
   5   4  21        1.26        1.24     38.31 o
 -12   5  21       43.08       29.07     34.80 o
 -10   5  21      108.67      113.95     30.91 o
  -8   5  21      118.44       87.44     35.09 o
  -6   5  21       64.77       53.79     49.37 o
  -4   5  21      100.47       73.21     45.95 o
  -2   5  21       40.31       50.40     48.93 o
   0   5  21       94.16       95.25     46.32 o
   2   5  21      160.36      155.73     58.65 o
   4   5  21       82.24       66.03     55.67 o
 -11   6  21      104.12      145.19     36.88 o
  -9   6  21      370.56      386.10     34.94 o
  -7   6  21      616.51      649.46     60.87 o
  -5   6  21       74.31       58.43     41.21 o
  -3   6  21      240.13      263.10     46.37 o
  -1   6  21      511.67      504.02     72.95 o
   1   6  21       11.50       14.90     50.17 o
   3   6  21      345.91      315.69     67.32 o
 -10   7  21       30.80       47.80     39.09 o
  -8   7  21        7.42       20.74     51.97 o
  -6   7  21       96.53      110.15     48.34 o
  -4   7  21      224.57      250.93     45.46 o
  -2   7  21       59.35       51.71     59.07 o
   0   7  21        0.12        1.59     51.02 o
   2   7  21       75.34       82.10     53.74 o
  -9   8  21       45.82       47.33     53.09 o
  -7   8  21      175.26      192.54     56.74 o
  -5   8  21      141.40      134.08     49.87 o
  -3   8  21       13.13       10.05     52.65 o
  -1   8  21       15.98       15.49     56.30 o
   1   8  21      144.14      125.63     61.42 o
  -6   9  21       12.98       15.78     49.63 o
  -4   9  21       14.00       13.91     54.62 o
  -2   9  21        3.21        9.93     52.78 o
 -12   0  22       37.45       49.96     54.93 o
 -10   0  22      226.55      185.40     56.65 o
  -8   0  22      117.32      155.14     64.57 o
  -6   0  22        2.30       -0.58     63.40 o
  -4   0  22      138.07      127.10     79.18 o
  -2   0  22      200.99      190.79     85.90 o
   0   0  22      990.98      997.48    113.66 o
   2   0  22      301.37      297.43     87.36 o
   4   0  22        8.94        1.17     87.65 o
 -13   1  22       23.95       24.83     34.19 o
 -11   1  22      159.79      164.14     29.99 o
  -9   1  22       30.62       37.98     46.38 o
  -7   1  22      271.13      276.69     43.93 o
  -5   1  22        4.82       17.68     49.03 o
  -3   1  22      593.78      561.56     67.76 o
  -1   1  22       27.37       34.58     53.29 o
   1   1  22       14.96       29.78     55.82 o
   3   1  22        0.59        0.29     57.83 o
   5   1  22      157.22      159.48     63.95 o
 -12   2  22       25.08       43.72     37.15 o
 -10   2  22      462.00      409.34     59.25 o
  -8   2  22      479.56      476.54     55.90 o
  -6   2  22      325.19      436.72    102.85 o
  -4   2  22        0.58        2.29     46.94 o
  -2   2  22      157.64      140.24     48.65 o
   0   2  22      310.68      501.27    174.72 o
   2   2  22       15.57       18.11     58.77 o
   4   2  22      238.47      258.87     65.18 o
 -11   3  22      230.41      236.43     29.10 o
  -9   3  22       48.58       47.71     35.89 o
  -7   3  22      709.08      747.09     81.90 o
  -5   3  22       74.63      267.92     75.19 o
  -3   3  22      259.49      247.76     56.26 o
  -1   3  22       95.35       90.79     52.81 o
   1   3  22      625.32      566.82     78.63 o
   3   3  22       60.39       51.03     60.07 o
 -12   4  22        8.59       16.39     38.78 o
 -10   4  22       33.36       20.98     35.16 o
  -8   4  22        1.29        1.74     33.41 o
  -6   4  22       29.17       25.13     47.60 o
  -4   4  22       11.71        7.60     45.03 o
  -2   4  22       13.88       13.49     52.64 o
   0   4  22      157.00      166.98     58.16 o
   2   4  22      234.80      230.53     61.14 o
   4   4  22       10.26        9.78     57.57 o
 -11   5  22       29.67       47.80     28.66 o
  -9   5  22       29.49       24.81     34.14 o
  -7   5  22       52.88       39.74     46.17 o
  -5   5  22       39.20       51.83     47.71 o
  -3   5  22        8.03        3.71     49.69 o
  -1   5  22      198.30      193.12     60.63 o
   1   5  22       13.53       15.78     54.23 o
   3   5  22        7.21        1.89     60.51 o
 -10   6  22      113.51       97.23     38.86 o
  -8   6  22      305.87      321.45     38.36 o
  -6   6  22       19.28       24.61     35.91 o
  -4   6  22        9.22       30.97     49.78 o
  -2   6  22       12.90       17.96     53.24 o
   0   6  22      225.11      221.18     60.52 o
   2   6  22       31.78       41.33     51.18 o
  -9   7  22      132.13      137.61     57.81 o
  -7   7  22       46.40       52.27     52.00 o
  -5   7  22      526.64      456.53     63.92 o
  -3   7  22       44.82       44.12     56.46 o
  -1   7  22        0.20        4.52     57.02 o
   1   7  22        7.26        5.84     52.45 o
  -6   8  22        4.31        5.65     52.56 o
  -4   8  22       32.55       36.22     51.54 o
  -2   8  22      347.66      371.94     59.59 o
 -12   1  23       36.57       33.31     41.36 o
 -10   1  23       80.48       63.19     30.73 o
  -8   1  23      790.93      748.89     71.90 o
  -6   1  23       47.72       61.94     50.49 o
  -4   1  23       37.14       50.55     51.75 o
  -2   1  23      172.95      193.13     61.86 o
   0   1  23       52.88       55.37     60.53 o
   2   1  23       17.13       19.87     60.65 o
 -11   2  23        0.63        0.46     28.72 o
  -9   2  23      127.29      152.22     39.73 o
  -7   2  23       22.81       16.65     45.66 o
  -5   2  23      382.68      388.30     61.87 o
  -3   2  23      248.38      232.28     54.28 o
  -1   2  23        0.24        3.51     58.95 o
   1   2  23       18.42        9.20     65.36 o
   3   2  23       76.46       71.44     63.53 o
 -10   3  23      170.09      191.12     35.75 o
  -8   3  23       16.29       30.42     49.27 o
  -6   3  23       61.08       61.59     51.47 o
  -4   3  23       29.95       31.26     48.12 o
  -2   3  23      103.48      106.63     54.52 o
   0   3  23        4.66       30.68     63.73 o
   2   3  23       64.33       96.13     63.43 o
 -11   4  23        0.77        1.29     29.00 o
  -9   4  23        4.86        5.84     35.08 o
  -7   4  23       83.15       83.26     48.41 o
  -5   4  23      246.33      264.42     47.00 o
  -3   4  23       70.41       82.69     59.91 o
  -1   4  23        2.03        4.97     56.39 o
   1   4  23        0.15        4.01     59.44 o
 -10   5  23       30.98       37.79     39.42 o
  -8   5  23       10.77       21.62     34.80 o
  -6   5  23       18.56       35.47     49.84 o
  -4   5  23       78.80       98.41     49.38 o
  -2   5  23        4.30        0.29     52.87 o
   0   5  23      162.11      123.30     66.09 o
  -9   6  23      621.44      601.00     49.85 o
  -7   6  23       34.36       35.35     36.38 o
  -5   6  23      273.93      269.52     66.80 o
  -3   6  23      259.55      255.70     56.06 o
  -1   6  23      247.13      261.20     56.19 o
  -6   7  23        0.43       14.47     55.41 o
  -4   7  23        1.14        3.51     48.77 o
  -2   7  23        2.45        5.84     49.89 o
 -10   0  24       12.44       18.76     46.03 o
  -8   0  24        1.65        2.63     73.34 o
  -6   0  24      116.76      127.10     76.84 o
  -4   0  24      900.83      944.89     89.70 o
  -2   0  24      103.54      107.81     87.65 o
   0   0  24       10.45        4.38     85.90 o
   2   0  24       95.21       93.50     82.10 o
 -11   1  24        0.42       12.28     31.06 o
  -9   1  24       15.93       19.72     51.64 o
  -7   1  24      183.16      185.24     48.76 o
  -5   1  24       78.83       87.79     57.51 o
  -3   1  24        4.10        7.91     59.48 o
  -1   1  24      149.72      161.57     69.11 o
   1   1  24      142.80      157.62     62.16 o
 -10   2  24      259.34      249.12     42.02 o
  -8   2  24        0.76       41.20     61.46 o
  -6   2  24      291.82      295.39     54.75 o
  -4   2  24       86.49       73.34     59.38 o
  -2   2  24       15.16       13.72     61.65 o
   0   2  24       84.85       73.92     61.96 o
  -9   3  24        4.78        3.62     37.41 o
  -7   3  24       70.24       77.86     61.99 o
  -5   3  24      393.68      419.56     58.65 o
  -3   3  24      323.18      360.44     57.20 o
  -1   3  24        5.36        5.26     56.61 o
   1   3  24       83.07       79.71     59.88 o
  -8   4  24       24.51       23.41     34.89 o
  -6   4  24        1.27       -0.02     49.73 o
  -4   4  24       21.24       23.23     54.81 o
  -2   4  24      103.34       90.43     59.27 o
   0   4  24        0.68        0.44     57.50 o
  -7   5  24        7.64       30.39     40.49 o
  -5   5  24       41.12       55.81     48.27 o
  -3   5  24      173.09      187.58     53.04 o
  -1   5  24       12.52       20.01     55.97 o
  -6   6  24       26.25       35.35     56.26 o
  -4   6  24       14.67       16.92     50.09 o
  -8   1  25       82.71       81.22     51.75 o
  -6   1  25       43.77       65.35     57.54 o
  -4   1  25        1.98        0.57     59.92 o
  -2   1  25       30.87       35.35     59.60 o
  -7   2  25      434.58      428.33     63.22 o
  -5   2  25      141.85      162.80     57.61 o
  -3   2  25        5.08        2.63     58.15 o
  -1   2  25        7.35        6.14     61.97 o
  -8   3  25       72.20       58.43     49.25 o
  -6   3  25      141.30      142.29     79.47 o
  -4   3  25       28.01       31.26     55.78 o
  -2   3  25       12.09       14.84     58.90 o
  -5   4  25      101.17      116.58     55.23 o
  -3   4  25       24.58       34.62     56.80 o
;
_shelx_hkl_checksum              8888
_shelx_res_file
;
TITL 1zjzm6            I2/a
CELL  0.71073  14.8441  13.2872  21.0311   90.000  105.191   90.000
ZERR     4.00   0.0012   0.0011   0.0015    0.000    0.003    0.000
LATT   2
SYMM  1/2 - X,   Y, - Z
SFAC  C    H    CL   N    O
UNIT  136  200  24   8    20
MERG   2
OMIT    -2.00  52.00
DFIX  0.88 0.01 O1 H1
FMAP   2
PLAN    2
SIZE     0.20   0.22   0.26
ACTA
BOND   $H
CONF
L.S.  98
TEMP    18.00
WGHT    0.096400
FVAR       0.18500
C1    1    0.199087   -0.014960    0.143293    11.00000    0.05357    0.04894 =
         0.05160    0.00242    0.01654    0.00306
C2    1    0.236995   -0.075447    0.196830    11.00000    0.07032    0.06690 =
         0.05173    0.00780    0.02217    0.00066
AFIX  43
H2    2    0.207593   -0.081123    0.230654    11.00000   -1.20000
AFIX   0
C3    1    0.319744   -0.128393    0.200380    11.00000    0.06565    0.06345 =
         0.05918    0.01164    0.00816    0.00586
C4    1    0.363995   -0.118515    0.150215    11.00000    0.06345    0.06563 =
         0.06166    0.01834    0.00927    0.01008
AFIX  43
H4    2    0.418888   -0.153584    0.152215    11.00000   -1.20000
AFIX   0
C5    1    0.325821   -0.055776    0.096770    11.00000    0.05372    0.05985 =
         0.06434    0.00926    0.01972    0.00940
AFIX  43
H5    2    0.355910   -0.048530    0.063419    11.00000   -1.20000
AFIX   0
C6    1    0.243430   -0.004133    0.092935    11.00000    0.05522    0.04266 =
         0.04191    0.00368    0.01345    0.00245
C7    1    0.250000    0.465149    0.000000    10.50000    0.05241    0.07580 =
         0.06719    0.00000    0.01735    0.00000
C8    1    0.244064    0.523933   -0.056309    11.00000    0.05954    0.05748 =
         0.07825   -0.00881    0.02287   -0.02197
C9    1    0.245408    0.629893   -0.054182    11.00000    0.07303    0.06222 =
         0.08578    0.01642    0.03099   -0.00990
AFIX  43
H9    2    0.242929    0.663323   -0.093454    11.00000   -1.20000
AFIX   0
C10   1    0.250000    0.688173    0.000000    10.50000    0.06864    0.07692 =
         0.07963    0.00000    0.02449    0.00000
AFIX  43
H10   2    0.250000    0.758165    0.000000    10.50000   -1.20000
AFIX   0
C11   1    0.117220    0.291413    0.209483    11.00000    0.09505    0.06663 =
         0.06751   -0.01086    0.03334    0.01139
AFIX   3
H11A  2    0.181500    0.297393    0.207383    11.00000   -1.20000
H11B  2    0.108190    0.223803    0.224093    11.00000   -1.20000
AFIX   0
C12   1    0.099356    0.364798    0.257658    11.00000    0.10082    0.06619 =
         0.06162    0.01425    0.03345   -0.00376
AFIX  23
H12A  2    0.152348    0.409352    0.273113    11.00000   -1.20000
H12B  2    0.086804    0.330678    0.295205    11.00000   -1.20000
AFIX   0
C13   1    0.016109    0.421575    0.220380    11.00000    0.10029    0.06744 =
         0.08689   -0.01955    0.04507   -0.00146
AFIX  23
H13A  2    0.025855    0.493512    0.226376    11.00000   -1.20000
H13B  2   -0.038796    0.402641    0.234423    11.00000   -1.20000
AFIX   0
C14   1    0.005830    0.392377    0.150128    11.00000    0.07780    0.06911 =
         0.07260   -0.01701    0.03402    0.00877
AFIX  23
H14A  2   -0.059399    0.379555    0.128707    11.00000   -1.20000
H14B  2    0.026736    0.447222    0.127090    11.00000   -1.20000
AFIX   0
C15   1    0.037641    0.249913   -0.026209    11.00000    0.06928    0.06146 =
         0.04973    0.00854    0.01983    0.01056
C16   1   -0.034991    0.184100   -0.012767    11.00000    0.06125    0.05886 =
         0.05716    0.01082    0.02189   -0.00884
AFIX 137
H16A  2   -0.013306    0.115737   -0.008763    11.00000   -1.50000
H16B  2   -0.090608    0.189053   -0.048324    11.00000   -1.50000
H16C  2   -0.048427    0.204589    0.027554    11.00000   -1.50000
AFIX   0
C17   1    0.004408    0.359982   -0.036393    11.00000    0.06555    0.04849 =
         0.05601    0.01228    0.01538    0.01191
AFIX 137
H17A  2    0.053315    0.400905   -0.044822    11.00000   -1.50000
H17B  2   -0.011120    0.383739    0.002526    11.00000   -1.50000
H17C  2   -0.049683    0.363898   -0.073230    11.00000   -1.50000
AFIX   0
C18   1    0.070646    0.214309   -0.085042    11.00000    0.07756    0.06608 =
         0.05305   -0.00387    0.02031    0.01185
AFIX 137
H18A  2    0.115601    0.261034   -0.093294    11.00000   -1.50000
H18B  2    0.018326    0.210343   -0.123131    11.00000   -1.50000
H18C  2    0.098846    0.149071   -0.075841    11.00000   -1.50000
AFIX   0
CL1   3    0.367760   -0.198018    0.268610    11.00000    0.07529    0.07563 =
         0.06323    0.02157    0.01955    0.00680
CL2   3    0.096608    0.043880    0.138293    11.00000    0.08207    0.10175 =
         0.08870    0.03242    0.04639    0.04114
CL3   3    0.234781    0.460697   -0.128099    11.00000    0.08345    0.07009 =
         0.07466   -0.00916    0.03651    0.00284
N1    4    0.121122    0.249469    0.032089    11.00000    0.05126    0.05572 =
         0.04623    0.00743    0.00702    0.01343
AFIX 137
H1A   2    0.163847    0.291907    0.024990    11.00000   -1.50000
H1B   2    0.145009    0.187687    0.038100    11.00000   -1.50000
H1C   2    0.104125    0.268548    0.067823    11.00000   -1.50000
PART   -1
AFIX   0
O1    5    0.208052    0.058055    0.042822    11.00000    0.06429    0.06005 =
         0.04691    0.01086    0.02155    0.01410
AFIX   2
H1    2    0.238991    0.063930    0.012308    10.50000   -1.20000
PART    0
AFIX   0
O2    5    0.250000    0.367380    0.000000    10.50000    0.07662    0.05714 =
         0.06764    0.00000    0.02705    0.00000
O3    5    0.057705    0.307281    0.146886    11.00000    0.08722    0.07436 =
         0.05910   -0.01823    0.02948   -0.01873
HKLF 4
REM  1zjzm6            I2/a
REM R1 =  0.0601 for   2350 Fo > 4sig(Fo)  and  0.0735 for all   3934 data
REM    221 parameters refined using      1 restraints
END
WGHT      0.0964      0.0000
REM Highest difference peak  0.318,  deepest hole -0.316,  1-sigma level  0.088
Q1    1   0.2367 -0.0413  0.1680  11.00000  0.05    0.32
Q2    1   0.1943 -0.0601  0.1825  11.00000  0.05    0.31
;
_shelx_res_checksum              888
loop_
_symmetry_equiv_pos_as_xyz
'x, y, z'
'-x+1/2, y, -z'
'x+1/2, y+1/2, z+1/2'
'-x+1, y+1/2, -z+1/2'
'-x, -y, -z'
'x-1/2, -y, z'
'-x+1/2, -y+1/2, -z+1/2'
'x, -y+1/2, z+1/2'
loop_
_atom_site_type_symbol
_atom_site_label
_atom_site_fract_x
_atom_site_fract_y
_atom_site_fract_z
_atom_site_U_iso_or_equiv
_atom_site_adp_type
_atom_site_calc_flag
_atom_site_refinement_flags
_atom_site_occupancy
_atom_site_symmetry_multiplicity
_atom_site_disorder_assembly
_atom_site_disorder_group
C C1 0.1991(2) -0.0150(2) 0.14329(15) 0.0509(7) Uani d . 1 1 A .
C C2 0.2370(2) -0.0754(3) 0.19683(16) 0.0618(8) Uani d . 1 1 . .
H H2 0.2076 -0.0811 0.2307 0.074 Uiso calc R 1 1 . .
C C3 0.3197(2) -0.1284(2) 0.20038(17) 0.0643(8) Uani d . 1 1 . .
C C4 0.3640(2) -0.1185(3) 0.15022(17) 0.0649(9) Uani d . 1 1 . .
H H4 0.4189 -0.1536 0.1522 0.078 Uiso calc R 1 1 . .
C C5 0.3258(2) -0.0558(2) 0.09677(17) 0.0585(8) Uani d . 1 1 A .
H H5 0.3559 -0.0485 0.0634 0.070 Uiso calc R 1 1 . .
C C6 0.24343(19) -0.0041(2) 0.09293(14) 0.0465(6) Uani d . 1 1 . .
C C7 0.2500 0.4651(4) 0.0000 0.0648(13) Uani d S 1 2 . .
C C8 0.2441(2) 0.5239(2) -0.05631(18) 0.0642(9) Uani d . 1 1 . .
C C9 0.2454(2) 0.6299(3) -0.0542(2) 0.0718(10) Uani d . 1 1 . .
H H9 0.2429 0.6633 -0.0935 0.086 Uiso calc R 1 1 . .
C C10 0.2500 0.6882(4) 0.0000 0.0741(14) Uani d S 1 2 . .
H H10 0.2500 0.7582 0.0000 0.089 Uiso calc SR 1 2 . .
C C11 0.1172(3) 0.2914(3) 0.20948(18) 0.0741(10) Uani d . 1 1 . .
H H11A 0.1815 0.2974 0.2074 0.089 Uiso d R 1 1 . .
H H11B 0.1082 0.2238 0.2241 0.089 Uiso d R 1 1 . .
C C12 0.0994(3) 0.3648(3) 0.25766(18) 0.0739(10) Uani d . 1 1 . .
H H12A 0.1523 0.4094 0.2731 0.089 Uiso calc R 1 1 . .
H H12B 0.0868 0.3307 0.2952 0.089 Uiso calc R 1 1 . .
C C13 0.0161(3) 0.4216(3) 0.2204(2) 0.0810(11) Uani d . 1 1 . .
H H13A 0.0259 0.4935 0.2264 0.097 Uiso calc R 1 1 . .
H H13B -0.0388 0.4026 0.2344 0.097 Uiso calc R 1 1 . .
C C14 0.0058(2) 0.3924(3) 0.15013(18) 0.0705(10) Uani d . 1 1 . .
H H14A -0.0594 0.3796 0.1287 0.085 Uiso calc R 1 1 . .
H H14B 0.0267 0.4472 0.1271 0.085 Uiso calc R 1 1 . .
C C15 0.0376(2) 0.2499(2) -0.02621(15) 0.0594(8) Uani d . 1 1 . .
C C16 -0.0350(2) 0.1841(2) -0.01277(16) 0.0579(8) Uani d . 1 1 . .
H H16A -0.0133 0.1157 -0.0088 0.087 Uiso calc R 1 1 . .
H H16B -0.0906 0.1891 -0.0483 0.087 Uiso calc R 1 1 . .
H H16C -0.0484 0.2046 0.0276 0.087 Uiso calc R 1 1 . .
C C17 0.0044(2) 0.3600(2) -0.03639(16) 0.0568(8) Uani d . 1 1 . .
H H17A 0.0533 0.4009 -0.0448 0.085 Uiso calc R 1 1 . .
H H17B -0.0111 0.3837 0.0025 0.085 Uiso calc R 1 1 . .
H H17C -0.0497 0.3639 -0.0732 0.085 Uiso calc R 1 1 . .
C C18 0.0706(2) 0.2143(3) -0.08504(16) 0.0650(9) Uani d . 1 1 . .
H H18A 0.1156 0.2610 -0.0933 0.097 Uiso calc R 1 1 . .
H H18B 0.0183 0.2103 -0.1231 0.097 Uiso calc R 1 1 . .
H H18C 0.0988 0.1491 -0.0758 0.097 Uiso calc R 1 1 . .
Cl Cl1 0.36776(6) -0.19802(7) 0.26861(4) 0.0711(3) Uani d . 1 1 . .
Cl Cl2 0.09661(7) 0.04388(8) 0.13829(5) 0.0863(4) Uani d . 1 1 . .
Cl Cl3 0.23478(6) 0.46070(7) -0.12810(5) 0.0731(3) Uani d . 1 1 . .
N N1 0.12112(15) 0.24947(18) 0.03209(12) 0.0521(6) Uani d . 1 1 . .
H H1A 0.1638 0.2919 0.0250 0.078 Uiso calc R 1 1 . .
H H1B 0.1450 0.1877 0.0381 0.078 Uiso calc R 1 1 . .
H H1C 0.1041 0.2685 0.0678 0.078 Uiso calc R 1 1 . .
O O1 0.20805(14) 0.05805(15) 0.04282(10) 0.0558(5) Uani d D 1 1 A -1
H H1 0.239(6) 0.064(4) 0.012(4) 0.067 Uiso d PD 0.50 1 B -1
O O2 0.2500 0.3674(2) 0.0000 0.0656(8) Uani d S 1 2 . .
O O3 0.05771(17) 0.30728(18) 0.14689(12) 0.0716(7) Uani d . 1 1 . .
loop_
_atom_site_aniso_label
_atom_site_aniso_U_11
_atom_site_aniso_U_22
_atom_site_aniso_U_33
_atom_site_aniso_U_12
_atom_site_aniso_U_13
_atom_site_aniso_U_23
C1 0.0536(16) 0.0489(17) 0.0516(18) 0.0031(13) 0.0165(13) 0.0024(14)
C2 0.070(2) 0.067(2) 0.052(2) 0.0007(16) 0.0222(16) 0.0078(17)
C3 0.0656(19) 0.063(2) 0.059(2) 0.0059(16) 0.0082(15) 0.0116(17)
C4 0.0634(19) 0.066(2) 0.062(2) 0.0101(16) 0.0093(16) 0.0183(17)
C5 0.0537(17) 0.060(2) 0.064(2) 0.0094(14) 0.0197(15) 0.0093(16)
C6 0.0552(16) 0.0427(15) 0.0419(16) 0.0025(13) 0.0134(12) 0.0037(13)
C7 0.052(2) 0.076(4) 0.067(3) 0.000 0.017(2) 0.000
C8 0.0595(19) 0.057(2) 0.078(2) -0.0220(15) 0.0229(16) -0.0088(18)
C9 0.073(2) 0.062(2) 0.086(3) -0.0099(17) 0.0310(19) 0.016(2)
C10 0.069(3) 0.077(3) 0.080(4) 0.000 0.024(3) 0.000
C11 0.095(3) 0.067(2) 0.068(2) 0.0114(18) 0.033(2) -0.0109(19)
C12 0.101(3) 0.066(2) 0.062(2) -0.004(2) 0.033(2) 0.0143(19)
C13 0.100(3) 0.067(2) 0.087(3) -0.001(2) 0.045(2) -0.020(2)
C14 0.078(2) 0.069(2) 0.073(2) 0.0088(17) 0.0340(18) -0.0170(19)
C15 0.0693(19) 0.061(2) 0.0497(19) 0.0106(15) 0.0198(15) 0.0085(16)
C16 0.0612(17) 0.0589(19) 0.0572(19) -0.0088(14) 0.0219(14) 0.0108(16)
C17 0.0656(18) 0.0485(18) 0.0560(19) 0.0119(14) 0.0154(14) 0.0123(15)
C18 0.078(2) 0.066(2) 0.053(2) 0.0119(16) 0.0203(16) -0.0039(17)
Cl1 0.0753(5) 0.0756(6) 0.0632(5) 0.0068(4) 0.0196(4) 0.0216(5)
Cl2 0.0821(6) 0.1018(8) 0.0887(7) 0.0411(5) 0.0464(5) 0.0324(6)
Cl3 0.0834(6) 0.0701(6) 0.0747(6) 0.0028(4) 0.0365(5) -0.0092(5)
N1 0.0513(13) 0.0557(15) 0.0462(14) 0.0134(11) 0.0070(11) 0.0074(12)
O1 0.0643(13) 0.0600(13) 0.0469(13) 0.0141(10) 0.0216(9) 0.0109(10)
O2 0.077(2) 0.057(2) 0.068(2) 0.000 0.0270(16) 0.000
O3 0.0872(16) 0.0744(16) 0.0591(15) -0.0187(12) 0.0295(12) -0.0182(12)
loop_
_atom_type_symbol
_atom_type_description
_atom_type_scat_dispersion_real
_atom_type_scat_dispersion_imag
_atom_type_scat_source
C C 0.0033 0.0016 'International Tables Vol C Tables 4.2.6.8 and 6.1.1.4'
H H 0.0000 0.0000 'International Tables Vol C Tables 4.2.6.8 and 6.1.1.4'
Cl Cl 0.1484 0.1585 'International Tables Vol C Tables 4.2.6.8 and 6.1.1.4'
N N 0.0061 0.0033 'International Tables Vol C Tables 4.2.6.8 and 6.1.1.4'
O O 0.0106 0.0060 'International Tables Vol C Tables 4.2.6.8 and 6.1.1.4'
loop_
_geom_angle_atom_site_label_1
_geom_angle_atom_site_label_2
_geom_angle_atom_site_label_3
_geom_angle_site_symmetry_1
_geom_angle_site_symmetry_3
_geom_angle
C2 C1 C6 . . 120.6(3)
C2 C1 Cl2 . . 119.3(2)
C6 C1 Cl2 . . 120.1(2)
C1 C2 C3 . . 120.1(3)
C1 C2 H2 . . 120.0
C3 C2 H2 . . 120.0
C4 C3 C2 . . 119.7(3)
C4 C3 Cl1 . . 121.1(3)
C2 C3 Cl1 . . 119.1(3)
C3 C4 C5 . . 119.7(3)
C3 C4 H4 . . 120.1
C5 C4 H4 . . 120.1
C6 C5 C4 . . 120.6(3)
C6 C5 H5 . . 119.7
C4 C5 H5 . . 119.7
O1 C6 C5 . . 120.8(3)
O1 C6 C1 . . 119.9(2)
C5 C6 C1 . . 119.3(3)
O2 C7 C8 . . 123.9(2)
O2 C7 C8 . 2 123.9(2)
C8 C7 C8 . 2 112.3(5)
C7 C8 C9 . . 122.2(4)
C7 C8 Cl3 . . 116.5(3)
C9 C8 Cl3 . . 121.3(3)
C10 C9 C8 . . 126.2(4)
C10 C9 H9 . . 116.9
C8 C9 H9 . . 116.9
C9 C10 C9 . 2 110.8(5)
C9 C10 H10 . . 124.6
C9 C10 H10 2 . 124.6
O3 C11 C12 . . 111.3(3)
O3 C11 H11A . . 109.4
C12 C11 H11A . . 109.4
O3 C11 H11B . . 109.4
C12 C11 H11B . . 109.2
H11A C11 H11B . . 108.0
C11 C12 C13 . . 104.3(3)
C11 C12 H12A . . 110.9
C13 C12 H12A . . 110.9
C11 C12 H12B . . 110.9
C13 C12 H12B . . 110.9
H12A C12 H12B . . 108.9
C12 C13 C14 . . 104.2(3)
C12 C13 H13A . . 110.9
C14 C13 H13A . . 110.9
C12 C13 H13B . . 110.9
C14 C13 H13B . . 110.9
H13A C13 H13B . . 108.9
O3 C14 C13 . . 110.3(3)
O3 C14 H14A . . 109.6
C13 C14 H14A . . 109.6
O3 C14 H14B . . 109.6
C13 C14 H14B . . 109.6
H14A C14 H14B . . 108.1
C16 C15 N1 . . 109.3(3)
C16 C15 C18 . . 112.3(3)
N1 C15 C18 . . 106.9(2)
C16 C15 C17 . . 111.5(3)
N1 C15 C17 . . 106.5(3)
C18 C15 C17 . . 110.0(3)
C15 C16 H16A . . 109.5
C15 C16 H16B . . 109.5
H16A C16 H16B . . 109.5
C15 C16 H16C . . 109.5
H16A C16 H16C . . 109.5
H16B C16 H16C . . 109.5
C15 C17 H17A . . 109.5
C15 C17 H17B . . 109.5
H17A C17 H17B . . 109.5
C15 C17 H17C . . 109.5
H17A C17 H17C . . 109.5
H17B C17 H17C . . 109.5
C15 C18 H18A . . 109.5
C15 C18 H18B . . 109.5
H18A C18 H18B . . 109.5
C15 C18 H18C . . 109.5
H18A C18 H18C . . 109.5
H18B C18 H18C . . 109.5
C15 N1 H1A . . 109.5
C15 N1 H1B . . 109.5
H1A N1 H1B . . 109.5
C15 N1 H1C . . 109.5
H1A N1 H1C . . 109.5
H1B N1 H1C . . 109.5
C6 O1 H1 . . 117(5)
C14 O3 C11 . . 107.5(3)
loop_
_geom_bond_atom_site_label_1
_geom_bond_atom_site_label_2
_geom_bond_site_symmetry_2
_geom_bond_distance
C1 C2 . 1.378(4)
C1 C6 . 1.393(4)
C1 Cl2 . 1.689(3)
C2 C3 . 1.400(4)
C2 H2 . 0.9300
C3 C4 . 1.387(5)
C3 Cl1 . 1.699(3)
C4 C5 . 1.395(4)
C4 H4 . 0.9300
C5 C6 . 1.386(4)
C5 H5 . 0.9300
C6 O1 . 1.334(3)
C7 O2 . 1.299(6)
C7 C8 . 1.402(4)
C7 C8 2 1.402(4)
C8 C9 . 1.409(4)
C8 Cl3 . 1.702(4)
C9 C10 . 1.365(5)
C9 H9 . 0.9300
C10 C9 2 1.365(5)
C10 H10 . 0.9300
C11 O3 . 1.396(4)
C11 C12 . 1.479(5)
C11 H11A . 0.9700
C11 H11B . 0.9700
C12 C13 . 1.484(5)
C12 H12A . 0.9700
C12 H12B . 0.9700
C13 C14 . 1.496(5)
C13 H13A . 0.9700
C13 H13B . 0.9700
C14 O3 . 1.380(4)
C14 H14A . 0.9700
C14 H14B . 0.9700
C15 C16 . 1.472(4)
C15 N1 . 1.498(4)
C15 C18 . 1.521(4)
C15 C17 . 1.540(4)
C16 H16A . 0.9600
C16 H16B . 0.9600
C16 H16C . 0.9600
C17 H17A . 0.9600
C17 H17B . 0.9600
C17 H17C . 0.9600
C18 H18A . 0.9600
C18 H18B . 0.9600
C18 H18C . 0.9600
N1 H1A . 0.8900
N1 H1B . 0.8900
N1 H1C . 0.8900
O1 H1 . 0.885(10)
loop_
_geom_hbond_atom_site_label_D
_geom_hbond_atom_site_label_H
_geom_hbond_atom_site_label_A
_geom_hbond_site_symmetry_A
_geom_hbond_distance_DH
_geom_hbond_distance_HA
_geom_hbond_distance_DA
_geom_hbond_angle_DHA
_geom_hbond_publ_flag
N1 H1A O2 . 0.89 1.81 2.691(3) 172 yes
N1 H1B O1 . 0.89 1.96 2.837(4) 171 yes
N1 H1C O3 . 0.89 2.03 2.915(4) 176 yes
O1 H1 O1 2_555 0.89 1.56 2.444(3) 173 yes
loop_
_geom_torsion_atom_site_label_1
_geom_torsion_atom_site_label_2
_geom_torsion_atom_site_label_3
_geom_torsion_atom_site_label_4
_geom_torsion_site_symmetry_1
_geom_torsion_site_symmetry_4
_geom_torsion
C6 C1 C2 C3 . . -1.3(5)
Cl2 C1 C2 C3 . . 177.1(3)
C1 C2 C3 C4 . . 0.9(5)
C1 C2 C3 Cl1 . . 177.1(3)
C2 C3 C4 C5 . . 0.2(5)
Cl1 C3 C4 C5 . . -176.0(3)
C3 C4 C5 C6 . . -0.8(5)
C4 C5 C6 O1 . . 178.2(3)
C4 C5 C6 C1 . . 0.4(5)
C2 C1 C6 O1 . . -177.1(3)
Cl2 C1 C6 O1 . . 4.4(4)
C2 C1 C6 C5 . . 0.7(5)
Cl2 C1 C6 C5 . . -177.8(2)
O2 C7 C8 C9 . . -179.2(2)
C8 C7 C8 C9 2 . 0.8(2)
O2 C7 C8 Cl3 . . 0.9(3)
C8 C7 C8 Cl3 2 . -179.1(3)
C7 C8 C9 C10 . . -1.8(5)
Cl3 C8 C9 C10 . . 178.1(2)
C8 C9 C10 C9 . 2 0.9(2)
O3 C11 C12 C13 . . 5.6(4)
C11 C12 C13 C14 . . -12.4(4)
C12 C13 C14 O3 . . 16.0(4)
C13 C14 O3 C11 . . -12.8(4)
C12 C11 O3 C14 . . 4.3(4)

_cod_database_fobs_code 2020660
